Version 4
SHEET 1 2132 2608
WIRE 1296 -1008 -96 -1008
WIRE 1296 -848 1296 -1008
WIRE 1296 -848 1216 -848
WIRE 1216 -800 1216 -848
WIRE 1296 -800 1296 -848
WIRE 1216 -672 1216 -736
WIRE 1296 -672 1296 -720
WIRE 1296 -672 1216 -672
WIRE 1296 -560 1296 -672
WIRE 1408 -560 1296 -560
WIRE 1568 -560 1504 -560
WIRE 1568 -512 1568 -560
WIRE 1488 -384 1488 -512
WIRE 1488 -384 736 -384
WIRE -96 -272 -96 -1008
WIRE 544 -272 -96 -272
WIRE 736 -272 736 -384
WIRE 736 -272 624 -272
WIRE 880 -272 736 -272
WIRE 1152 -272 976 -272
WIRE -96 -128 -96 -272
WIRE 176 -128 -96 -128
WIRE 656 -128 176 -128
WIRE 720 -128 656 -128
WIRE 928 -128 928 -208
WIRE 928 -128 800 -128
WIRE 176 -96 176 -128
WIRE 928 0 928 -128
WIRE 992 0 928 0
WIRE 1152 0 1152 -272
WIRE 1152 0 1088 0
WIRE -96 16 -96 -128
WIRE 176 16 176 -16
WIRE 1152 48 1152 0
WIRE -96 144 -96 16
WIRE 112 144 32 144
WIRE 656 144 656 -128
WIRE 176 160 176 96
WIRE 256 160 176 160
WIRE 480 160 256 160
WIRE 512 160 480 160
WIRE 624 160 512 160
WIRE 256 176 256 160
WIRE 512 176 512 160
WIRE 800 176 688 176
WIRE 912 176 800 176
WIRE 1040 176 1040 64
WIRE 1040 176 992 176
WIRE 32 192 32 144
WIRE 624 192 592 192
WIRE 112 208 112 144
WIRE 160 208 112 208
WIRE 160 240 112 240
WIRE -96 256 -96 224
WIRE 512 256 512 240
WIRE 656 256 656 208
WIRE 32 288 32 272
WIRE 112 288 112 240
WIRE 112 288 32 288
WIRE 256 288 256 256
WIRE 256 288 176 288
WIRE 32 304 32 288
WIRE 176 304 176 288
WIRE 592 352 592 192
WIRE 656 352 592 352
WIRE 800 352 800 176
WIRE 800 352 736 352
WIRE 832 352 800 352
WIRE 960 352 960 336
WIRE 960 352 912 352
WIRE 960 416 960 352
WIRE 176 432 176 384
WIRE 592 592 592 352
WIRE 960 592 960 576
WIRE 960 592 592 592
WIRE 960 608 960 592
WIRE 592 672 592 592
WIRE 592 800 592 736
WIRE 960 800 960 768
WIRE 960 800 592 800
WIRE 960 816 960 800
FLAG -96 256 0
FLAG 32 304 0
FLAG 176 432 0
FLAG 480 160 temp
FLAG 592 352 ref
FLAG 800 176 out
FLAG 1152 48 0
FLAG 512 256 0
FLAG 1568 -512 0
FLAG 656 256 0
FLAG -96 16 12VDC
FLAG 960 816 0
FLAG 960 336 12VDC
DATAFLAG 256 160 ""
DATAFLAG 592 448 ""
SYMBOL res 160 -112 R0
SYMATTR InstName R2
SYMATTR Value 5k
SYMBOL SpecialFunctions\\varistor 192 288 M180
SYMATTR InstName A1
SYMBOL voltage -96 128 R0
WINDOW 123 0 0 Left 0
WINDOW 39 0 0 Left 0
SYMATTR InstName V1
SYMATTR Value 12
SYMBOL OpAmps\\opamp2 656 112 R0
SYMATTR InstName U1
SYMATTR Value LM393A
SYMBOL res 816 -144 R90
WINDOW 0 0 56 VBottom 2
WINDOW 3 32 56 VTop 2
SYMATTR InstName R7
SYMATTR Value 60k
SYMBOL res 752 336 R90
WINDOW 0 0 56 VBottom 2
WINDOW 3 32 56 VTop 2
SYMATTR InstName R1
SYMATTR Value 1750k
SYMBOL npn 992 64 R270
SYMATTR InstName Q1
SYMATTR Value 2N3904
SYMBOL cap 496 176 R0
SYMATTR InstName C1
SYMATTR Value 10n
SYMBOL npn 880 -208 R270
SYMATTR InstName Q2
SYMATTR Value 2N3904
SYMBOL res 640 -288 R90
WINDOW 0 0 56 VBottom 2
WINDOW 3 32 56 VTop 2
SYMATTR InstName R6
SYMATTR Value 60k
SYMBOL res 1008 160 R90
WINDOW 0 0 56 VBottom 2
WINDOW 3 32 56 VTop 2
SYMATTR InstName R8
SYMATTR Value 1k
SYMBOL res 160 288 R0
SYMATTR InstName R3
SYMATTR Value 5k
SYMBOL res 240 160 R0
SYMATTR InstName R9
SYMATTR Value 110
SYMBOL cap 576 672 R0
SYMATTR InstName C2
SYMATTR Value 1n
SYMBOL ind 1280 -816 R0
SYMATTR InstName K1
SYMATTR Value 225µ
SYMATTR SpiceLine Rser=275
SYMBOL nmos 1408 -512 R270
SYMATTR InstName M1
SYMATTR Value IRLH5030
SYMBOL diode 1232 -736 R180
WINDOW 0 24 64 Left 2
WINDOW 3 24 0 Left 2
SYMATTR InstName D1
SYMATTR Value VS-E5PH3006
SYMBOL voltage 32 176 R0
WINDOW 3 84 193 Right 2
WINDOW 123 0 0 Left 0
WINDOW 39 0 0 Left 0
SYMATTR Value PULSE(0.12 0.155 10m 80m 20m 20m 200m 1)
SYMATTR InstName V3
SYMBOL res 944 480 R0
SYMATTR InstName R10
SYMATTR Value 450
SYMBOL res 944 592 R0
SYMATTR InstName R11
SYMATTR Value 550
SYMBOL res 976 512 R180
WINDOW 0 36 76 Left 2
WINDOW 3 36 40 Left 2
SYMATTR InstName R4
SYMATTR Value 10k
SYMBOL res 976 784 R180
WINDOW 0 36 76 Left 2
WINDOW 3 36 40 Left 2
SYMATTR InstName R5
SYMATTR Value 10k
SYMBOL res 816 368 R270
WINDOW 0 32 56 VTop 2
WINDOW 3 0 56 VBottom 2
SYMATTR InstName R12
SYMATTR Value 50k
SYMBOL res 160 0 R0
SYMATTR InstName R13
SYMATTR Value 200
TEXT -192 472 Left 2 !.tran 0 200m 0 1u
TEXT -728 600 Left 2 !* LM393A VOLTAGE COMPARATOR "MACROMODEL" SUBCIRCUIT\n* CREATED USING PARTS VERSION 4.03 ON 03/07/90 AT 14:17\n* REV (N/A)\n* CONNECTIONS:   NON-INVERTING INPUT\n*                | INVERTING INPUT\n*                | | POSITIVE POWER SUPPLY\n*                | | | NEGATIVE POWER SUPPLY\n*                | | | | OPEN COLLECTOR OUTPUT\n*                | | | | |\n.SUBCKT LM393A   1 2 3 4 5\n*\n  F1    9  3 V1 1\n  IEE   3  7 DC 100.0E-6\n  VI1  21  1 DC .75\n  VI2  22  2 DC .75\n  Q1    9 21  7 QIN\n  Q2    8 22  7 QIN\n  Q3    9  8  4 QMO\n  Q4    8  8  4 QMI\n.MODEL QIN PNP(IS=800.0E-18 BF=2.000E3)\n.MODEL QMI NPN(IS=800.0E-18 BF=1002)\n.MODEL QMO NPN(IS=800.0E-18 BF=1000 CJC=1E-15 TR=807.4E-9)\n  E1   10  4  9  4  1\n  V1   10 11 DC 0\n  Q5    5 11  4 QOC\n.MODEL QOC NPN(IS=800.0E-18 BF=20.29E3 CJC=1E-15 TF=942.6E-12 TR=543.8E-9)\n  DP    4  3 DX\n  RP 3  4 46.3E3\n.MODEL DX  D(IS=800.0E-18)\n*\n.ENDS
