1
9
.tran 500u 4 0{return}{return}
3
1
Net-(Q1-Pad3)
V
1
Net-(Q2-Pad3)
V
1
Net-(Q3-Pad2)
V
