* DIODES INCORPORATED AND ITS AFFILIATED COMPANIES AND SUBSIDIARIES (COLLECTIVELY, "DIODES") 
* PROVIDE THESE SPICE MODELS AND DATA (COLLECTIVELY, THE "SM DATA") "AS IS" AND WITHOUT ANY 
* REPRESENTATIONS OR WARRANTIES, EXPRESS OR IMPLIED, INCLUDING ANY WARRANTY OF MERCHANTABILITY 
* OR FITNESS FOR A PARTICULAR PURPOSE, ANY WARRANTY ARISING FROM COURSE OF DEALING OR COURSE OF 
* PERFORMANCE, OR ANY WARRANTY THAT ACCESS TO OR OPERATION OF THE SM DATA WILL BE UNINTERRUPTED, 
* OR THAT THE SM DATA OR ANY SIMULATION USING THE SM DATA WILL BE ERROR FREE. TO THE MAXIMUM 
* EXTENT PERMITTED BY LAW, IN NO EVENT WILL DIODES BE LIABLE FOR ANY DIRECT OR INDIRECT, 
* SPECIAL, INCIDENTAL, PUNITIVE OR CONSEQUENTIAL DAMAGES ARISING OUT OF OR IN CONNECTION WITH 
* THE PRODUCTION OR USE OF SM DATA, HOWEVER CAUSED AND UNDER WHATEVER CAUSE OF ACTION OR THEORY 
* OF LIABILITY BROUGHT (INCLUDING, WITHOUT LIMITATION, UNDER ANY CONTRACT, NEGLIGENCE OR OTHER 
* TORT THEORY OF LIABILITY), EVEN IF DIODES HAS BEEN ADVISED OF THE POSSIBILITY OF SUCH DAMAGES, 
* AND DIODES' TOTAL LIABILITY (WHETHER IN CONTRACT, TORT OR OTHERWISE) WITH REGARD TO THE SM 
* DATA WILL NOT, IN THE AGGREGATE, EXCEED ANY SUMS PAID BY YOU TO DIODES FOR THE SM DATA.


*---------- 2N7002 Spice Model ----------
.SUBCKT N7002 10 20 30 
*     TERMINALS:  D  G  S
M1 1 2 3 3 NMOS L = 1E-006 W = 1E-006 
RD 10 1 0.976 
RS 30 3 0.001 
RG 20 2 160.6 
CGS 2 3 2E-011 
EGD 12 0 2 1 1 
VFB 14 0 0 
FFB 2 1 VFB 1 
CGD 13 14 5.9E-011 
R1 13 0 1 
D1 12 13 DLIM 
DDG 15 14 DCGD 
R2 12 15 1 
D2 15 0 DLIM 
DSD 3 10 DSUB 
.MODEL NMOS NMOS LEVEL = 3 VMAX = 1E+006 ETA = 0 VTO = 2.154 
+ TOX = 6E-008 NSUB = 1E+016 KP = 0.4654 KAPPA = 1E-015 U0 = 400 
.MODEL DCGD D CJO = 1.2E-011 VJ = 0.6 M = 0.6 
.MODEL DSUB D IS = 6.808E-010 N = 1.576 RS = 0.1408 BV = 72 CJO = 8E-012 VJ = 0.8 M = 0.6474 
.MODEL DLIM D IS = 0.0001 
.ENDS
*Diodes N7002 Spice Model v0 Last Revised 2017/2/9


*---------- 2N7002A Spice Model ----------
.SUBCKT 2N7002A 10 20 30 
*     TERMINALS:  D  G  S
M1 1 2 3 3 NMOS L = 1E-006 W = 1E-006 
RD 10 1 2.175 
RS 30 3 0.001 
RG 20 2 79.9 
DESD1 2 5 DESD 
DESD2 3 5 DESD 
CGS 2 3 2.011E-011 
EGD 12 0 2 1 1 
VFB 14 0 0 
FFB 2 1 VFB 1 
CGD 13 14 5.9E-011 
R1 13 0 1 
D1 12 13 DLIM 
DDG 15 14 DCGD 
R2 12 15 1 
D2 15 0 DLIM 
DSD 3 10 DSUB 
.MODEL NMOS NMOS LEVEL = 3 VMAX = 8E+005 ETA = 0.0001583 VTO = 1.595 
+ TOX = 6E-008 NSUB = 1E+016 KP = 0.58 U0 = 400 KAPPA = 4.069 
.MODEL DCGD D CJO = 1.646E-011 VJ = 0.1277 M = 0.4 
.MODEL DSUB D IS = 4.551E-009 N = 1.836 RS = 0.1357 
+ CJO = 2.877E-012 VJ = 1.307E-009 M = 0.03355 
.MODEL DLIM D IS = 0.0001 
.MODEL DESD D IS = 1.223E-008 N = 54.79 BV = 5.385 
.ENDS
*Diodes 2N7002A Spice Model v1.0 Last Revised 2016/6/15


*---------- 2N7002AQ Spice Model ----------
.SUBCKT 2N7002AQ 10 20 30 
*     TERMINALS:  D  G  S
M1 1 2 3 3 NMOS L = 1E-006 W = 1E-006 
RD 10 1 2.175 
RS 30 3 0.001 
RG 20 2 79.9 
DESD1 2 5 DESD 
DESD2 3 5 DESD 
CGS 2 3 2.011E-011 
EGD 12 0 2 1 1 
VFB 14 0 0 
FFB 2 1 VFB 1 
CGD 13 14 5.9E-011 
R1 13 0 1 
D1 12 13 DLIM 
DDG 15 14 DCGD 
R2 12 15 1 
D2 15 0 DLIM 
DSD 3 10 DSUB 
.MODEL NMOS NMOS LEVEL = 3 VMAX = 8E+005 ETA = 0.0001583 VTO = 1.595 
+ TOX = 6E-008 NSUB = 1E+016 KP = 0.58 U0 = 400 KAPPA = 4.069 
.MODEL DCGD D CJO = 1.646E-011 VJ = 0.1277 M = 0.4 
.MODEL DSUB D IS = 4.551E-009 N = 1.836 RS = 0.1357 
+ CJO = 2.877E-012 VJ = 1.307E-009 M = 0.03355 
.MODEL DLIM D IS = 0.0001 
.MODEL DESD D IS = 1.223E-008 N = 54.79 BV = 5.385 
.ENDS
*Diodes 2N7002AQ Spice Model v1.0 Last Revised 2016/6/15


*SRC=2N7002DW;DI_2N7002DW;MOSFETs N;Enh;60.0V 0.115A 3.20ohms  Diodes Inc. MOSFET - One element of dual
.MODEL DI_2N7002DW  NMOS( LEVEL=1 VTO=1.50 KP=32.0m  GAMMA=1.86
+ PHI=.75  LAMBDA=34.2u RD=0.448 RS=0.448
+ IS=57.5f  PB=0.800 MJ=0.460 CBD=44.5p 
+ CBS=53.4p  CGSO=24.0n CGDO=20.0n CGBO=176n  )  *   -- Assumes default L=100U W=100U --


*---------- 2N7002DWK Spice Model ----------
.SUBCKT 2N7002DWK 10 20 30 
* TERMINALS : D G S
* MODEL FORMAT : SPICE3
* Editor : J
M1 1 2 3 3 NMOS L = 1E-006 W = 1E-006 
RD 10 1 1.2 
RS 30 3 0.0001 
RG 20 2 224.52 
CGS 2 3 3.821E-011 
EGD 12 0 2 1 1 
VFB 14 0 0 
FFB 2 1 VFB 1 
CGD 13 14 5.8E-011 
R1 13 0 1 
D1 12 13 DLIM 
DDG 15 14 DCGD 
R2 12 15 1 
D2 15 0 DLIM 
DSD 3 10 DSUB 
.MODEL NMOS NMOS LEVEL = 3 VMAX = 1E+005 ETA = 0 VTO = 1.783 
+ TOX = 1E-007 NSUB = 1E+015 KP = 1.4 U0 = 400 KAPPA = 0.2 IS = 0 
.MODEL DCGD D CJO = 1.528E-011 VJ = 0.5 M = 0.4303 
.MODEL DSUB D IS = 4.6E-009 N = 1.746 RS = 0.08691 BV = 81.4 
+ CJO = 8.143E-012 VJ = 0.6 M = 0.3542 XTI = 0 TT = 4.4E-008 
.MODEL DLIM D IS = 0.0001 
.ENDS
*Diodes Spice Model v1.1 Last Revised 2020/11/19


*SRC=2N7002DWQ;DI_2N7002DWQ;MOSFETs N;Enh;60.0V 0.115A 3.20ohms  Diodes Inc. MOSFET - One element of dual
.MODEL DI_2N7002DWQ  NMOS( LEVEL=1 VTO=1.50 KP=32.0m  GAMMA=1.86
+ PHI=.75  LAMBDA=34.2u RD=0.448 RS=0.448
+ IS=57.5f  PB=0.800 MJ=0.460 CBD=44.5p 
+ CBS=53.4p  CGSO=24.0n CGDO=20.0n CGBO=176n  )  *   -- Assumes default L=100U W=100U --


*---------- 2N7002DWS Spice Model ----------
.SUBCKT 2N7002DWS 10 20 30 
*     TERMINALS:  D  G  S
M1 1 2 3 3 NMOS L = 1E-006 W = 1E-006 
RD 10 1 2.63 
RS 30 3 0.001 
RG 20 2 900.9 
CGS 2 3 3.933E-011 
EGD 12 0 2 1 1 
VFB 14 0 0 
FFB 2 1 VFB 1 
CGD 13 14 5.8E-011 
R1 13 0 1 
D1 12 13 DLIM 
DDG 15 14 DCGD 
R2 12 15 1 
D2 15 0 DLIM 
DSD 3 10 DSUB 
.MODEL NMOS NMOS LEVEL = 3 VMAX = 5.378E+005 ETA = 0.001 VTO = 2.084 
+ TOX = 6E-008 NSUB = 1E+016 KP = 1.27 U0 = 400 KAPPA = 10 
.MODEL DCGD D CJO = 5.483E-012 VJ = 0.8 M = 0.6 
.MODEL DSUB D IS = 4.945E-010 N = 1.613 RS = 0.07371 BV = 76.92 
+ CJO = 2.987E-011 VJ = 0.8 M = 0.6 TT = 1.04E-008 
.MODEL DLIM D IS = 0.0001 
.ENDS
*Diodes 2N7002DWS Spice Model v1.0M Last Revised 2019/03/22


*SRC=2N7002E;DI_2N7002E;MOSFETs N;Enh;60.0V 0.240A 4.00ohms  Diodes Inc. MOSFET .MODEL DI_2N7002E  NMOS( LEVEL=1 VTO=2.50 KP=781u  GAMMA=3.10
+ PHI=.75  LAMBDA=83.2u RD=0.560 RS=0.560
+ IS=120f  PB=0.800 MJ=0.460 CBD=44.5p
+ CBS=53.4p  CGSO=24.0n CGDO=20.0n CGBO=176n  )
*   -- Assumes default L=100U W=100U --


*---------- 2N7002EQ Spice Model ----------
.SUBCKT 2N7002EQ 10 20 30 
* TERMINALS : D G S
* MODEL FORMAT : SPICE3
* Editor : J
M1 1 2 3 3 NMOS L = 1E-006 W = 1E-006 
RD 10 1 1.05 
RS 30 3 0.0001 
RG 20 2 187.9 
CGS 2 3 3.193E-011 
EGD 12 0 2 1 1 
VFB 14 0 0 
FFB 2 1 VFB 1 
CGD 13 14 1.02E-012 
R1 13 0 1 
D1 12 13 DLIM 
DDG 15 14 DCGD 
R2 12 15 1 
D2 15 0 DLIM 
DSD 3 10 DSUB 
.MODEL NMOS NMOS LEVEL = 3 VMAX = 1E+005 ETA = 0 VTO = 1.505 
+ TOX = 1E-007 NSUB = 1E+015 KP = 0.45 U0 = 400 KAPPA = 0.2 IS = 0 
.MODEL DCGD D CJO = 2.55E-011 VJ = 0.5 M = 0.5485 
.MODEL DSUB D IS = 2E-009 N = 1.637 RS = 0.138 BV = 82 
+ CJO = 7.5E-012 VJ = 0.6 M = 0.3558 XTI = 0 TT = 9.03E-009 
.MODEL DLIM D IS = 0.0001 
.ENDS
*Diodes Spice Model v1.1 Last Revised 2020/11/25


*---------- 2N7002H Spice Model ----------
.SUBCKT 2N7002H 10 20 30 
*     TERMINALS:  D  G  S
M1 1 2 3 3 NMOS L = 1E-006 W = 1E-006 
RD 10 1 0.1977 
RS 30 3 0.001 
RG 20 2 134.6 
CGS 2 3 2.532E-011 
EGD 12 0 2 1 1 
VFB 14 0 0 
FFB 2 1 VFB 1 
CGD 13 14 2E-011 
R1 13 0 1 
D1 12 13 DLIM 
DDG 15 14 DCGD 
R2 12 15 1 
D2 15 0 DLIM 
DSD 3 10 DSUB 
.MODEL NMOS NMOS LEVEL = 3 VMAX = 8E+005 ETA = 0.001 VTO = 3.072 
+ TOX = 6E-008 NSUB = 1E+016 KP = 0.3271 U0 = 400 KAPPA = 4.441E-010 
.MODEL DCGD D CJO = 1.33E-010 VJ = 0.1 M = 0.9638 
.MODEL DSUB D IS = 2.229E-010 N = 1.639 RS = 0.7641 BV = 86.7 CJO = 1.164E-012 VJ = 0.1038 M = 0.4732 
.MODEL DLIM D IS = 0.0001 
.ENDS
*Diodes 2N7002H  Spice Model v1.0 Last Revised 2015/6/29


*SRC=2N7002K;DI_2N7002K;MOSFETs N;Enh;60.0V 0.300A 2.00ohms  Diodes Inc. MOSFET
.MODEL DI_2N7002K  NMOS( LEVEL=1 VTO=2.50 KP=32.0m  GAMMA=3.10
+ PHI=.75  LAMBDA=104u RD=0.280 RS=0.280
+ IS=150f  PB=0.800 MJ=0.460 CBD=98.8p 
+ CBS=119p  CGSO=60.0n CGDO=50.0n CGBO=390n  )
*   -- Assumes default L=100U W=100U --


*SRC=2N7002KQ;DI_2N7002KQ;MOSFETs N;Enh;60.0V 0.300A 2.00ohms  Diodes Inc. MOSFET
.MODEL DI_2N7002KQ  NMOS( LEVEL=1 VTO=2.50 KP=32.0m  GAMMA=3.10
+ PHI=.75  LAMBDA=104u RD=0.280 RS=0.280
+ IS=150f  PB=0.800 MJ=0.460 CBD=98.8p 
+ CBS=119p  CGSO=60.0n CGDO=50.0n CGBO=390n  )
*   -- Assumes default L=100U W=100U --


*---------- 2N7002Q Spice Model ----------
.SUBCKT 2N7002Q 10 20 30 
*     TERMINALS:  D  G  S
M1 1 2 3 3 NMOS L = 1E-006 W = 1E-006 
RD 10 1 0.976 
RS 30 3 0.001 
RG 20 2 160.6 
CGS 2 3 2E-011 
EGD 12 0 2 1 1 
VFB 14 0 0 
FFB 2 1 VFB 1 
CGD 13 14 5.9E-011 
R1 13 0 1 
D1 12 13 DLIM 
DDG 15 14 DCGD 
R2 12 15 1 
D2 15 0 DLIM 
DSD 3 10 DSUB 
.MODEL NMOS NMOS LEVEL = 3 VMAX = 1E+006 ETA = 0 VTO = 2.154 
+ TOX = 6E-008 NSUB = 1E+016 KP = 0.4654 KAPPA = 1E-015 U0 = 400 
.MODEL DCGD D CJO = 1.2E-011 VJ = 0.6 M = 0.6 
.MODEL DSUB D IS = 6.808E-010 N = 1.576 RS = 0.1408 BV = 72 CJO = 8E-012 VJ = 0.8 M = 0.6474 
.MODEL DLIM D IS = 0.0001 
.ENDS
*Diodes 2N7002Q Spice Model v0 Last Revised 2020/9/18


*---------- 2N7002T Spice Model ----------
.SUBCKT 2N7002T 10 20 30 
*     TERMINALS:  D  G  S
M1 1 2 3 3 NMOS L = 1E-006 W = 1E-006 
RD 10 1 1.213 
RS 30 3 0.001 
RG 20 2 71.9 
CGS 2 3 1.8E-011 
EGD 12 0 2 1 1 
VFB 14 0 0 
FFB 2 1 VFB 1 
CGD 13 14 6.6E-011 
R1 13 0 1 
D1 12 13 DLIM 
DDG 15 14 DCGD 
R2 12 15 1 
D2 15 0 DLIM 
DSD 3 10 DSUB 
.MODEL NMOS NMOS LEVEL = 3 VMAX = 5.378E+005 ETA = 0.001 VTO = 1.885 
+ TOX = 6E-008 NSUB = 1E+016 KP = 0.4493 U0 = 400 KAPPA = 10 
.MODEL DCGD D CJO = 2.522E-011 VJ = 0.6 M = 0.7265 
.MODEL DSUB D IS = 2.816E-009 N = 1.731 RS = 0.05482 BV = 20 CJO = 5.5E-011 VJ = 0.6 M = 0.7957 
.MODEL DLIM D IS = 0.0001 
.ENDS
*Diodes 2N7002T Spice Model v1.0M Last Revised 2016/2/1


*---------- 2N7002VAC Spice Model ----------
.SUBCKT 2N7002VAC 10 20 30 
*     TERMINALS:  D  G  S
M1 1 2 3 3 NMOS L = 1E-006 W = 1E-006 
RD 10 1 0.764 
RS 30 3 0.001 
RG 20 2 120 
CGS 2 3 1.982E-011 
EGD 12 0 2 1 1 
VFB 14 0 0 
FFB 2 1 VFB 1 
CGD 13 14 5.95E-011 
R1 13 0 1 
D1 12 13 DLIM 
DDG 15 14 DCGD 
R2 12 15 1 
D2 15 0 DLIM 
DSD 3 10 DSUB 
.MODEL NMOS NMOS LEVEL = 3 VMAX = 5.378E+005 ETA = 0.001 VTO = 1.951 
+ TOX = 6E-008 NSUB = 1E+016 KP = 0.3344 U0 = 400 KAPPA = 10 
.MODEL DCGD D CJO = 1.046E-011 VJ = 0.2615 M = 0.3137 
.MODEL DSUB D IS = 6.246E-010 N = 1.568 RS = 0.1544 BV = 75 CJO = 9.897E-012 VJ = 0.8 M = 0.6 
.MODEL DLIM D IS = 0.0001 
.ENDS
*Diodes 2N7002VAC Spice Model v1.0M Last Revised 2016/2/23


*---------- 2N7002VC Spice Model ----------
.SUBCKT 2N7002VC 10 20 30 
*     TERMINALS:  D  G  S
M1 1 2 3 3 NMOS L = 1E-006 W = 1E-006 
RD 10 1 0.764 
RS 30 3 0.001 
RG 20 2 120 
CGS 2 3 1.982E-011 
EGD 12 0 2 1 1 
VFB 14 0 0 
FFB 2 1 VFB 1 
CGD 13 14 5.95E-011 
R1 13 0 1 
D1 12 13 DLIM 
DDG 15 14 DCGD 
R2 12 15 1 
D2 15 0 DLIM 
DSD 3 10 DSUB 
.MODEL NMOS NMOS LEVEL = 3 VMAX = 5.378E+005 ETA = 0.001 VTO = 1.951 
+ TOX = 6E-008 NSUB = 1E+016 KP = 0.3344 U0 = 400 KAPPA = 10 
.MODEL DCGD D CJO = 1.046E-011 VJ = 0.2615 M = 0.3137 
.MODEL DSUB D IS = 6.246E-010 N = 1.568 RS = 0.1544 BV = 75 CJO = 9.897E-012 VJ = 0.8 M = 0.6 
.MODEL DLIM D IS = 0.0001 
.ENDS
*Diodes 2N7002VC Spice Model v1.0M Last Revised 2016/2/23


*SRC=2N7002W;DI_2N7002W;MOSFETs N;Enh;60.0V 0.115A 3.20ohms  Diodes Inc. MOSFET 
.MODEL DI_2N7002W  NMOS( LEVEL=1 VTO=1.50 KP=32.0m  GAMMA=1.86
+ PHI=.75  LAMBDA=40.0u RD=0.448 RS=0.448
+ IS=57.5f  PB=0.800 MJ=0.460 CBD=44.5p 
+ CBS=53.4p  CGSO=24.0n CGDO=20.0n CGBO=176n  )   *   -- Assumes default L=100U W=100U --


*ZETEX BS107P Spice Model v1.1 Last Revised 04/10/2021
    *
    .SUBCKT BS107P 3 4 5
    *                D G S
    M1 3 2 5 5 MN0124
    RG 4 2 225
    RL 3 5 2.4E7
    C1 2 5 60E-12
    C2 3 2 2E-12 
    D1 5 3 DN0124
    *
    .MODEL MN0124 NMOS VTO=1.55 RS=1.6 RD=9 IS=1E-15 KP=1.077 CBD=36E-12 PB=1 LAMBDA=0
    .MODEL DN0124 D IS=3.071E-12 N=1.026 RS=0.511
    .ENDS BS107P
    *
    *$
    *
*                (c)  2005 Zetex Semiconductors plc
*
*   The copyright in these models  and  the designs embodied belong
*   to Zetex Semiconductors plc (" Zetex ").  They  are  supplied
*   free of charge by Zetex for the purpose of research and design
*   and may be used or copied intact  (including this notice)  for
*   that purpose only.  All other rights are reserved. The models
*   are believed accurate but  no condition  or warranty  as to their
*   merchantability or fitness for purpose is given and no liability
*   in respect of any use is accepted by Zetex PLC, its distributors
*   or agents.
*
*   Zetex Semiconductors plc, Zetex Technology Park, Chadderton,
*   Oldham, United Kingdom, OL9 9LL


*ZETEX BS170P Spice Model v1.1 Last Revised 9/21/20
    *
    .SUBCKT BS170P 3 4 5
    *                D G S
    M1 3 2 5 5 N3306M
    RG 4 2 270
    RL 3 5 1.2E8
    C1 2 5 28E-12
    C2 3 2 3E-12 
    D1 5 3 N3306D
    *
    .MODEL N3306M NMOS VTO=1.824 RS=1.572 RD=1.436 IS=1E-15 KP=.1233
    +CBD=35E-12 PB=1
    .MODEL N3306D D IS=5E-12 RS=.768
    .ENDS BS170P
    *
    *$
    *


*ZETEX BS250P Spice Model v1.0 Last Revised 19/3/03
    *
    .SUBCKT BS250P 3 4 5
    *                D G S
    M1 3 2 5 5 MBS250
    RG 4 2 160
    RL 3 5 1.2E8
    C1 2 5 47E-12
    C2 3 2 10E-12 
    D1 3 5 DBS250
    *
    .MODEL MBS250 PMOS VTO=-3.193 RS=2.041 RD=0.697 IS=1E-15 KP=0.277
    +CBD=105E-12 PB=1 LAMBDA=1.2E-2
    .MODEL DBS250 D IS=2E-13 RS=0.309
    .ENDS BS250P
    *
    *$
    *


*SRC=BS870;DI_BS870;MOSFETs N;Enh;60.0V 0.250A 3.50ohms  Diodes Inc. MOSFET 
.MODEL DI_BS870  NMOS( LEVEL=1 VTO=2.00 KP=32.0m  GAMMA=2.48
+ PHI=.75  LAMBDA=86.8u RD=0.490 RS=0.490
+ IS=125f  PB=0.800 MJ=0.460 CBD=29.8p 
+ CBS=35.8p  CGSO=24.0n CGDO=20.0n CGBO=176n  )   *   -- Assumes default L=100U W=100U --


*SRC=BS870Q;DI_BS870;MOSFETs N;Enh;60.0V 0.250A 3.50ohms  Diodes Inc. MOSFET 
.MODEL DI_BS870  NMOS( LEVEL=1 VTO=2.00 KP=32.0m  GAMMA=2.48
+ PHI=.75  LAMBDA=86.8u RD=0.490 RS=0.490
+ IS=125f  PB=0.800 MJ=0.460 CBD=29.8p 
+ CBS=35.8p  CGSO=24.0n CGDO=20.0n CGBO=176n  )   *   -- Assumes default L=100U W=100U --


*---------- BSN20 Spice Model ----------
.SUBCKT BSN20 10 20 30 
*     TERMINALS:  D  G  S
M1 1 2 3 3 NMOS L = 1E-006 W = 1E-006 
RD 10 1 0.9338 
RS 30 3 0.001 
RG 20 2 47 
CGS 2 3 1.906E-011 
EGD 12 0 2 1 1 
VFB 14 0 0 
FFB 2 1 VFB 1 
CGD 13 14 4.9E-011 
R1 13 0 1 
D1 12 13 DLIM 
DDG 15 14 DCGD 
R2 12 15 1 
D2 15 0 DLIM 
DSD 3 10 DSUB 
.MODEL NMOS NMOS LEVEL = 3 VMAX = 8E+005 ETA = 1E-012 VTO = 1.422 
+ TOX = 6E-008 NSUB = 1E+016 KP = 0.5025 U0 = 400 KAPPA = 7.117 
.MODEL DCGD D CJO = 9.463E-012 VJ = 6.446 M = 0.9816 
.MODEL DSUB D IS = 7.582E-010 N = 1.586 RS = 0.1976 
+ BV = 65 CJO = 1.173E-011 VJ = 0.03727 M = 0.2868 
.MODEL DLIM D IS = 0.0001 
.ENDS
*Diodes BSN20 Spice Model v1.0 Last Revised 2012/8/22


*ZETEX  BSS123 Spice Model v1.0 Last Revision 27/3/06
    *
    .SUBCKT BSS123/ZTX 3 4 5
    * NODES: DRAIN GATE SOURCE
    M1 3 2 5 5 MOD1   
    RG 4 2 356
    RL 3 5 1E8
    C1 2 5 21.5P
    C2 3 2 2.5P 
    D1 5 3 DIODE1
    *
    .MODEL MOD1 NMOS VTO=1.736 RS=2.147 RD=1.682 IS=1E-15 KP=0.157
    +CBD=25.5P PB=1
    .MODEL DIODE1 D IS=6.12E-13 RS=.629
    .ENDS BSS123
    *
    *$
    *


*---------- BSS123(Z) Spice Model ----------
.SUBCKT BSS123Z 10 20 30 
*     TERMINALS:  D  G  S
M1 1 2 3 3 NMOS L = 1E-006 W = 1E-006 
RD 10 1 2.298 
RS 30 3 0.001 
RG 20 2 17 
CGS 2 3 5.7E-011 
EGD 12 0 2 1 1 
VFB 14 0 0 
FFB 2 1 VFB 1 
CGD 13 14 1E-011 
R1 13 0 1 
D1 12 13 DLIM 
DDG 15 14 DCGD 
R2 12 15 1 
D2 15 0 DLIM 
DSD 3 10 DSUB 
.MODEL NMOS NMOS LEVEL = 3 VMAX = 5.378E+005 ETA = 0.001 VTO = 1.75 
+ TOX = 6E-008 NSUB = 1E+016 KP = 1.58 U0 = 400 KAPPA = 10 
.MODEL DCGD D CJO = 1.2E-011 VJ = 0.8 M = 0.6 
.MODEL DSUB D IS = 1.847E-009 N = 1.638 RS = 0.1103 BV = 115 CJO = 1E-011 VJ = 0.7586 M = 0.6096 
.MODEL DLIM D IS = 0.0001 
.ENDS
*Diodes BSS123Z Spice Model v1.0M Last Revised 2016/10/6


*---------- BSS123K Spice Model ----------
.SUBCKT BSS123K 10 20 30 
* TERMINALS : D G S
* MODEL FORMAT : SPICE3
* Editor : A
M1 1 2 3 3 NMOS L = 1E-006 W = 1E-006 
RD 10 1 3.552 
RS 30 3 0.0001 
RG 20 2 37.13 
CGS 2 3 3.62E-011 
EGD 12 0 2 1 1 
VFB 14 0 0 
FFB 2 1 VFB 1 
CGD 13 14 7.6E-011 
R1 13 0 1 
D1 12 13 DLIM 
DDG 15 14 DCGD 
R2 12 15 1 
D2 15 0 DLIM 
DSD 3 10 DSUB 
.MODEL NMOS NMOS LEVEL = 3 VMAX = 1E+005 ETA = 0 VTO = 1.561 
+ TOX = 1E-007 
+ NSUB = 1E+015 KP = 0.74 U0 = 400 KAPPA = 0.2 IS = 0 
.MODEL DCGD D CJO = 1.75E-011 VJ = 0.5 M = 0.5 
.MODEL DSUB D IS = 2.1E-008 N = 1.922 RS = 0.1198 BV = 120.5 
+ CJO = 8E-012 VJ = 0.9 M = 0.5 XTI = 0 
.MODEL DLIM D IS = 0.0001 
.ENDS
*Diodes BSS123K Spice Model v1.1 Last Revised 2020/11/04


*BSS123Q Spice Model v1.0 Last Revision 5/2/21
    *
    .SUBCKT BSS123Q/ZTX 3 4 5
    * NODES: DRAIN GATE SOURCE
    M1 3 2 5 5 MOD1   
    RG 4 2 356
    RL 3 5 1E8
    C1 2 5 21.5P
    C2 3 2 2.5P 
    D1 5 3 DIODE1
    *
    .MODEL MOD1 NMOS VTO=1.736 RS=2.147 RD=1.682 IS=1E-15 KP=0.157
    +CBD=25.5P PB=1
    .MODEL DIODE1 D IS=6.12E-13 RS=.629
    .ENDS BSS123Q
    *
    *$
    *


*SRC=BSS123W;DI_BSS123W;MOSFETs N;Enh;100V 0.170A 1.00ohms  Diodes Inc. MOSFET 
.MODEL DI_BSS123W  NMOS( LEVEL=1 VTO=1.40 KP=0.805  GAMMA=1.74
+ PHI=.75  LAMBDA=41.8u RD=0.140 RS=0.140
+ IS=85.0f  PB=0.800 MJ=0.460 CBD=39.5p 
+ CBS=47.4p  CGSO=24.0n CGDO=20.0n CGBO=246n  )   *   -- Assumes default L=100U W=100U --


*---------- BSS123WQ Spice Model ----------
.SUBCKT BSS123WQ 10 20 30 
*     TERMINALS:  D  G  S
M1 1 2 3 3 NMOS L = 1E-006 W = 1E-006 
RD 10 1 2.998 
RS 30 3 0.001 
RG 20 2 1.23 
CGS 2 3 1.9E-011 
EGD 12 0 2 1 1 
VFB 14 0 0 
FFB 2 1 VFB 1 
CGD 13 14 5.2E-011 
R1 13 0 1 
D1 12 13 DLIM 
DDG 15 14 DCGD 
R2 12 15 1 
D2 15 0 DLIM 
DSD 3 10 DSUB 
.MODEL NMOS NMOS LEVEL = 3 VMAX = 5.378E+005 ETA = 0.001 VTO = 1.562 
+ TOX = 6E-008 NSUB = 1E+016 KP = 0.298 U0 = 400 KAPPA = 10 
.MODEL DCGD D CJO = 8E-012 VJ = 0.8 M = 0.6 
.MODEL DSUB D IS = 7.832E-008 N = 2.128 RS = 0.06918 BV = 107 CJO = 1E-011 VJ = 0.7586 M = 0.6096 
.MODEL DLIM D IS = 0.0001 
.ENDS
*Diodes BSS123WQ Spice Model v1.0M Last Revised 2016/10/4


*---------- BSS127S Spice Model ----------
.SUBCKT BSS127S 10 20 30 
*     TERMINALS:  D  G  S
M1 1 2 3 3 NMOS L = 1E-006 W = 1E-006 
RD 10 1 84.22 
RS 30 3 0.001 
RG 20 2 29 
CGS 2 3 1.958E-011 
EGD 12 0 2 1 1 
VFB 14 0 0 
FFB 2 1 VFB 1 
CGD 13 14 7.5E-011 
R1 13 0 1 
D1 12 13 DLIM 
DDG 15 14 DCGD 
R2 12 15 1 
D2 15 0 DLIM 
DSD 3 10 DSUB 
.MODEL NMOS NMOS LEVEL = 3 VMAX = 8E+005 ETA = 1E-012 VTO = 3.419 
+ TOX = 6.8E-008 NSUB = 1E+016 KP = 0.127 U0 = 400 KAPPA = 1.044E-015 
.MODEL DCGD D CJO = 1.137E-011 VJ = 0.9051 M = 0.89 
.MODEL DSUB D IS = 2.294E-010 N = 1.601 RS = 0.1079 
+ BV = 690 CJO = 1.956E-011 VJ = 1.514 M = 0.8171 
.MODEL DLIM D IS = 0.0001 
.ENDS
*Diodes BSS127S Spice Model v1.1 Last Revised 2014/8/5



*---------- BSS127SSN Spice Model ----------
.SUBCKT BSS127SSN 10 20 30 
*     TERMINALS:  D  G  S
M1 1 2 3 3 NMOS L = 1E-006 W = 1E-006 
RD 10 1 84.22 
RS 30 3 0.001 
RG 20 2 29 
CGS 2 3 1.958E-011 
EGD 12 0 2 1 1 
VFB 14 0 0 
FFB 2 1 VFB 1 
CGD 13 14 7.5E-011 
R1 13 0 1 
D1 12 13 DLIM 
DDG 15 14 DCGD 
R2 12 15 1 
D2 15 0 DLIM 
DSD 3 10 DSUB 
.MODEL NMOS NMOS LEVEL = 3 VMAX = 8E+005 ETA = 1E-012 VTO = 3.419 
+ TOX = 6.8E-008 NSUB = 1E+016 KP = 0.127 U0 = 400 KAPPA = 1.044E-015 
.MODEL DCGD D CJO = 1.137E-011 VJ = 0.9051 M = 0.89 
.MODEL DSUB D IS = 2.294E-010 N = 1.601 RS = 0.1079 BV = 690 
+ CJO = 1.956E-011 VJ = 1.514 M = 0.8171 
.MODEL DLIM D IS = 0.0001 
.ENDS
*Diodes BSS127SSN Spice Model v1.1 Last Revised 2014/8/5


*ZETEX BSS138 Spice Model v2.0 Last Revised 5/4/07
    *
    .SUBCKT BSS138/ZTX 3 4 5
    * Nodes        D G S
    M1 3 2 5 5 MOD1
    RG 4 2 20
    RL 3 5 6E6
    C1 2 5 30E-12
    C2 3 2 1E-12 
    C3 7 5 58E-12
    D1 5 3 Dmod1
    D2 6 3 Dmod2
    Egs1 2 6 2 5 1
    Egs2 8 5 2 5 1
    S1 2 7 3 2 SMOD1a
    S2 7 8 3 2 SMOD1b
    .MODEL MOD1 NMOS VTO=1 RS=1.58 RD=0.0 IS=1E-15 KP=0.395
    +CBD=53.5E-12 PB=1 LAMBDA=267E-6
    .MODEL Dmod1 D IS=1.254E-13 N=1.0207 RS=0.222
    .MODEL Dmod2 D CJO=40E-12
    .MODEL SMOD1a VSWITCH RON=1e-2 ROFF=1e4  VON=-1 VOFF=1
    .MODEL SMOD1b VSWITCH RON=1e-2 ROFF=1e4  VON=1 VOFF=-1
    .ENDS
    *
    *$
    *


*---------- BSS138DW Spice Model ----------
.SUBCKT BSS138DW 10 20 30 
*     TERMINALS:  D  G  S
M1 1 2 3 3 NMOS L = 1E-006 W = 1E-006 
RD 10 1 0.9338 
RS 30 3 0.001 
RG 20 2 47 
CGS 2 3 1.906E-011 
EGD 12 0 2 1 1 
VFB 14 0 0 
FFB 2 1 VFB 1 
CGD 13 14 4.9E-011 
R1 13 0 1 
D1 12 13 DLIM 
DDG 15 14 DCGD 
R2 12 15 1 
D2 15 0 DLIM 
DSD 3 10 DSUB 
.MODEL NMOS NMOS LEVEL = 3 VMAX = 8E+005 ETA = 1E-012 VTO = 1.422 
+ TOX = 6E-008 NSUB = 1E+016 KP = 0.5025 U0 = 400 KAPPA = 7.117 
.MODEL DCGD D CJO = 9.463E-012 VJ = 6.446 M = 0.9816 
.MODEL DSUB D IS = 7.582E-010 N = 1.586 RS = 0.1976 
+ BV = 65 CJO = 1.173E-011 VJ = 0.03727 M = 0.2868 
.MODEL DLIM D IS = 0.0001 
.ENDS
*Diodes BSS138DW Spice Model v1.0 Last Revised 2012/8/22


*---------- BSS138DWK Spice Model ----------
.SUBCKT BSS138DWK 10 20 30 
* TERMINALS : D G S
* MODEL FORMAT : SPICE3
* Editor : J
M1 1 2 3 3 NMOS L = 1E-006 W = 1E-006 
RD 10 1 1.23 
RS 30 3 0.0001 
RG 20 2 67.26
CGS 2 3 1.83E-011 
EGD 12 0 2 1 1 
VFB 14 0 0 
FFB 2 1 VFB 1 
CGD 13 14 4.84E-011 
R1 13 0 1 
D1 12 13 DLIM 
DDG 15 14 DCGD 
R2 12 15 1 
D2 15 0 DLIM 
DSD 3 10 DSUB 
.MODEL NMOS NMOS LEVEL = 3 VMAX = 1E+005 ETA = 0 VTO = 1.204 
+ TOX = 1E-007 NSUB = 1E+016 KP = 0.9 U0 = 600 KAPPA = 0.2 IS = 0 
.MODEL DCGD D CJO = 1.3E-011 VJ = 0.8 M = 0.35 
.MODEL DSUB D IS = 1E-008 N = 1.741 RS = 0.1845 BV = 56.47 
+ CJO = 3.1E-012 VJ = 0.6 M = 0.301 XTI = 0 TT = 5.3E-009 
.MODEL DLIM D IS = 0.0001 
.ENDS
*Diodes Spice Model v1.1 Last Revised 2021/09/24


*---------- BSS138DWQ Spice Model ----------
.SUBCKT BSS138DWQ 10 20 30 
*     TERMINALS:  D  G  S
M1 1 2 3 3 NMOS L = 1E-006 W = 1E-006 
RD 10 1 0.9338 
RS 30 3 0.001 
RG 20 2 47 
CGS 2 3 1.906E-011 
EGD 12 0 2 1 1 
VFB 14 0 0 
FFB 2 1 VFB 1 
CGD 13 14 4.9E-011 
R1 13 0 1 
D1 12 13 DLIM 
DDG 15 14 DCGD 
R2 12 15 1 
D2 15 0 DLIM 
DSD 3 10 DSUB 
.MODEL NMOS NMOS LEVEL = 3 VMAX = 8E+005 ETA = 1E-012 VTO = 1.422 
+ TOX = 6E-008 NSUB = 1E+016 KP = 0.5025 U0 = 400 KAPPA = 7.117 
.MODEL DCGD D CJO = 9.463E-012 VJ = 6.446 M = 0.9816 
.MODEL DSUB D IS = 7.582E-010 N = 1.586 RS = 0.1976 
+ BV = 65 CJO = 1.173E-011 VJ = 0.03727 M = 0.2868 
.MODEL DLIM D IS = 0.0001 
.ENDS
*Diodes BSS138DWQ Spice Model v1.0M Last Revised 2016/4/19


*ZETEX BSS138Q Spice Model v2.0 Last Revised 5/4/07
    *
    .SUBCKT BSS138Q/ZTX 3 4 5
    * Nodes        D G S
    M1 3 2 5 5 MOD1
    RG 4 2 20
    RL 3 5 6E6
    C1 2 5 30E-12
    C2 3 2 1E-12 
    C3 7 5 58E-12
    D1 5 3 Dmod1
    D2 6 3 Dmod2
    Egs1 2 6 2 5 1
    Egs2 8 5 2 5 1
    S1 2 7 3 2 SMOD1a
    S2 7 8 3 2 SMOD1b
    .MODEL MOD1 NMOS VTO=1 RS=1.58 RD=0.0 IS=1E-15 KP=0.395
    +CBD=53.5E-12 PB=1 LAMBDA=267E-6
    .MODEL Dmod1 D IS=1.254E-13 N=1.0207 RS=0.222
    .MODEL Dmod2 D CJO=40E-12
    .MODEL SMOD1a VSWITCH RON=1e-2 ROFF=1e4  VON=-1 VOFF=1
    .MODEL SMOD1b VSWITCH RON=1e-2 ROFF=1e4  VON=1 VOFF=-1
    .ENDS
    *
    *$


*---------- BSS138W Spice Model ----------
.SUBCKT BSS138W 10 20 30 
*     TERMINALS:  D  G  S
M1 1 2 3 3 NMOS L = 1E-006 W = 1E-006 
RD 10 1 0.9338 
RS 30 3 0.001 
RG 20 2 47 
CGS 2 3 1.906E-011 
EGD 12 0 2 1 1 
VFB 14 0 0 
FFB 2 1 VFB 1 
CGD 13 14 4.9E-011 
R1 13 0 1 
D1 12 13 DLIM 
DDG 15 14 DCGD 
R2 12 15 1 
D2 15 0 DLIM 
DSD 3 10 DSUB 
.MODEL NMOS NMOS LEVEL = 3 VMAX = 8E+005 ETA = 1E-012 VTO = 1.422 
+ TOX = 6E-008 NSUB = 1E+016 KP = 0.5025 U0 = 400 KAPPA = 7.117 
.MODEL DCGD D CJO = 9.463E-012 VJ = 6.446 M = 0.9816 
.MODEL DSUB D IS = 7.582E-010 N = 1.586 RS = 0.1976 
+ BV = 65 CJO = 1.173E-011 VJ = 0.03727 M = 0.2868 
.MODEL DLIM D IS = 0.0001 
.ENDS
*Diodes BSS138W Spice Model v1.0 Last Revised 2012/8/22


*---------- BSS138WQ Spice Model ----------
.SUBCKT BSS138WQ 10 20 30 
* TERMINALS : D G S
* MODEL FORMAT : SPICE3
* Editor : J
M1 1 2 3 3 NMOS L = 1E-006 W = 1E-006 
RD 10 1 1.33 
RS 30 3 0.0001 
RG 20 2 37.5 
CGS 2 3 4.21E-011 
EGD 12 0 2 1 1 
VFB 14 0 0 
FFB 2 1 VFB 1 
CGD 13 14 8.5E-011 
R1 13 0 1 
D1 12 13 DLIM 
DDG 15 14 DCGD 
R2 12 15 1 
D2 15 0 DLIM 
DSD 3 10 DSUB 
.MODEL NMOS NMOS LEVEL = 3 VMAX = 1E+005 ETA = 0 VTO = 1.32 
+ TOX = 1E-007 NSUB = 1E+015 KP = 1.3 U0 = 400 KAPPA = 0.2 IS = 0 
.MODEL DCGD D CJO = 2.89E-011 VJ = 0.5 M = 0.3977 
.MODEL DSUB D IS = 1.73E-009 N = 1.605 RS = 0.1412 BV = 79.85
+ CJO = 9.6E-012 VJ = 0.668 M = 0.3 XTI = 0 TT = 8.8E-009 
.MODEL DLIM D IS = 0.0001 
.ENDS
*Diodes Spice Model v1.1 Last Revised 2021/07/19


*ZETEX BSS84 Spice Model v1.1 Last Revised 3/5/00
    *              
    .SUBCKT BSS84 3 4 5
    * NODES: DRAIN GATE SOURCE
    M1 3 2 5 5 MOD1
    RG 4 2 167
    RL 3 5 50E6
    C1 2 5 26P
    C2 3 2 4P 
    D1 3 5 DIODE1
    *
    .MODEL MOD1 PMOS VTO=-1.709 RS=3.091 RD=0.979 IS=1E-15 KP=0.146
    +CBD=12P PB=1
    .MODEL DIODE1 D IS=1.072E-13 RS=0.527 N=1.077
    .ENDS BSS84
    *
    *$
    *


*SRC=BSS84;DI_BSS84;MOSFETs P;Enh;50.0V 0.130A 6.00ohms  Diodes Inc. MOSFET
.MODEL DI_BSS84  PMOS( LEVEL=1 VTO=-1.60 KP=4.87m  GAMMA=1.98
+ PHI=.75  LAMBDA=1.25m RD=0.840 RS=0.840
+ IS=65.0f  PB=0.800 MJ=0.460 CBD=46.6p
+ CBS=55.9p  CGSO=50.7n CGDO=42.2n CGBO=69.5n  )
*   -- Assumes default L=100U W=100U -- 

*SRC=2N7002;2N7002;MOSFETs N;Enh;60.0V 0.115A 7.50ohms  Diodes Inc. -
.MODEL 2N7002  NMOS( LEVEL=1 VTO=2.50 KP=32.0m  GAMMA=3.10
+ PHI=.75  LAMBDA=39.9u RD=1.05 RS=1.05
+ IS=57.5f  PB=0.800 MJ=0.460 CBD=98.8p 
+ CBS=119p  CGSO=60.0n CGDO=50.0n CGBO=390n  )
*   -- Assumes default L=100U W=100U --


*---------- BSS84DW Spice Model ----------
.SUBCKT BSS84DW 10 20 30 
*     TERMINALS:  D  G  S
M1 1 2 3 3 PMOS L = 1E-006 W = 1E-006 
RD 10 1 2.072 
RS 30 3 0.001 
RG 20 2 1 
CGS 2 3 2.301E-011 
EGD 12 30 2 1 1 
VFB 14 30 0 
FFB 2 1 VFB 1 
CGD 13 14 4.1E-011 
R1 13 30 1 
D1 13 12  DLIM 
DDG 14 15 DCGD 
R2 12 15 1 
D2 30 15 DLIM 
DSD 10 3 DSUB 
.MODEL PMOS PMOS LEVEL = 3 U0 = 400 VMAX = 1E+006 ETA = 0.001 TOX = 6E-008 NSUB = 1E+016 KP = 0.3083 KAPPA = 32.1 VTO = -1.513 
.MODEL DCGD D CJO = 7.698E-012 VJ = 0.2 M = 0.2205 
.MODEL DSUB D IS = 9.579E-010 N = 1.677 RS = 0.1623  BV = 50 CJO = 9.694E-012 VJ = 0.4761 M = 0.3849 
.MODEL DLIM D IS = 0.0001 
.ENDS
*Diodes BSS84DW Spice Model v1.0 Last Revised 2012/4/17


*---------- BSS84DWQ Spice Model ----------
.SUBCKT BSS84DWQ 10 20 30 
*     TERMINALS:  D  G  S
M1 1 2 3 3 PMOS L = 1E-006 W = 1E-006 
RD 10 1 2.072 
RS 30 3 0.001 
RG 20 2 1 
CGS 2 3 2.301E-011 
EGD 12 30 2 1 1 
VFB 14 30 0 
FFB 2 1 VFB 1 
CGD 13 14 4.1E-011 
R1 13 30 1 
D1 13 12  DLIM 
DDG 14 15 DCGD 
R2 12 15 1 
D2 30 15 DLIM 
DSD 10 3 DSUB 
.MODEL PMOS PMOS LEVEL = 3 U0 = 400 VMAX = 1E+006 ETA = 0.001 TOX = 6E-008 NSUB = 1E+016 KP = 0.3083 KAPPA = 32.1 VTO = -1.513 
.MODEL DCGD D CJO = 7.698E-012 VJ = 0.2 M = 0.2205 
.MODEL DSUB D IS = 9.579E-010 N = 1.677 RS = 0.1623  BV = 50 CJO = 9.694E-012 VJ = 0.4761 M = 0.3849 
.MODEL DLIM D IS = 0.0001 
.ENDS
*Diodes BSS84DWQ Spice Model v1.0 Last Revised 2012/4/17


*---------- BSS84Q Spice Model ----------
.SUBCKT BSS84Q 10 20 30 
* TERMINALS : D  G  S
* MODLE FORMAT : SPICE3
* Editor : J
M1 1 2 3 3 PMOS L = 1E-006 W = 1E-006 
RD 10 1 2.7 
RS 30 3 0.001 
RG 20 2 76.64 
CGS 2 3 2.2E-011 
EGD 12 30 2 1 1 
VFB 14 30 0 
FFB 2 1 VFB 1 
CGD 13 14 3.95E-011 
R1 13 30 1 
D1 13 12 DLIM 
DDG 14 15 DCGD 
R2 12 15 1 
D2 30 15 DLIM 
DSD 10 3 DSUB 
.MODEL PMOS PMOS LEVEL = 3 U0 = 400 VMAX = 1E+005 ETA = 0 
+ VTO = -1.582 TOX = 1E-007 NSUB = 1E+015 KP = 0.43 KAPPA = 0.2 IS = 0 
.MODEL DCGD D CJO = 8.647E-012 VJ = 0.8 M = 0.35 
.MODEL DSUB D IS = 8.1E-010 N = 1.613 RS = 0.166 BV = 67.27 
+ CJO = 7.7E-012 VJ = 0.9 M = 0.3 XTI = 0 
.MODEL DLIM D IS = 0.0001 
.ENDS
*Diodes Spice Model v1.1 Last Revised 2021/05/07


*---------- BSS84W Spice Model ----------
.SUBCKT BSS84W 10 20 30 
*     TERMINALS:  D  G  S
M1 1 2 3 3 PMOS L = 1E-006 W = 1E-006 
RD 10 1 2.072 
RS 30 3 0.001 
RG 20 2 1 
CGS 2 3 2.301E-011 
EGD 12 30 2 1 1 
VFB 14 30 0 
FFB 2 1 VFB 1 
CGD 13 14 4.1E-011 
R1 13 30 1 
D1 13 12  DLIM 
DDG 14 15 DCGD 
R2 12 15 1 
D2 30 15 DLIM 
DSD 10 3 DSUB 
.MODEL PMOS PMOS LEVEL = 3 U0 = 400 VMAX = 1E+006 ETA = 0.001 TOX = 6E-008 NSUB = 1E+016 KP = 0.3083 KAPPA = 32.1 VTO = -1.513 
.MODEL DCGD D CJO = 7.698E-012 VJ = 0.2 M = 0.2205 
.MODEL DSUB D IS = 9.579E-010 N = 1.677 RS = 0.1623  BV = 50 CJO = 9.694E-012 VJ = 0.4761 M = 0.3849 
.MODEL DLIM D IS = 0.0001 
.ENDS
*Diodes BSS84W Spice Model v1.0 Last Revised 2012/4/17


*---------- DMC1015UPD Spice Model ----------

*NMOS

.SUBCKT DMC1015UPD 10 20 30 
*     TERMINALS:  D  G  S
M1 1 2 3 3 NMOS L = 1E-006 W = 1E-006 
RD 10 1 0.003806 
RS 30 3 0.001 
RG 20 2 1.63 
CGS 2 3 1.22E-009 
EGD 12 0 2 1 1 
VFB 14 0 0 
FFB 2 1 VFB 1 
CGD 13 14 2.17E-009 
R1 13 0 1 
D1 12 13 DLIM 
DDG 15 14 DCGD 
R2 12 15 1 
D2 15 0 DLIM 
DSD 3 10 DSUB 
.MODEL NMOS NMOS LEVEL = 3 VMAX = 5.378E+005 ETA = 0.001 VTO = 1.141 
+ TOX = 6E-008 NSUB = 1E+016 KP = 99.78 U0 = 400 KAPPA = 10 
.MODEL DCGD D CJO = 1.283E-009 VJ = 0.6 M = 0.6 
.MODEL DSUB D IS = 4.518E-010 N = 1.111 RS = 0.01242 BV = 20 CJO = 2.066E-015 VJ = 0.7549 M = 0.6 TT=1.436E-08 
.MODEL DLIM D IS = 0.0001 
.ENDS

*PMOS