* DIODES INCORPORATED AND ITS AFFILIATED COMPANIES AND SUBSIDIARIES (COLLECTIVELY, "DIODES") 
* PROVIDE THESE SPICE MODELS AND DATA (COLLECTIVELY, THE "SM DATA") "AS IS" AND WITHOUT ANY 
* REPRESENTATIONS OR WARRANTIES, EXPRESS OR IMPLIED, INCLUDING ANY WARRANTY OF MERCHANTABILITY 
* OR FITNESS FOR A PARTICULAR PURPOSE, ANY WARRANTY ARISING FROM COURSE OF DEALING OR COURSE OF 
* PERFORMANCE, OR ANY WARRANTY THAT ACCESS TO OR OPERATION OF THE SM DATA WILL BE UNINTERRUPTED, 
* OR THAT THE SM DATA OR ANY SIMULATION USING THE SM DATA WILL BE ERROR FREE. TO THE MAXIMUM 
* EXTENT PERMITTED BY LAW, IN NO EVENT WILL DIODES BE LIABLE FOR ANY DIRECT OR INDIRECT, 
* SPECIAL, INCIDENTAL, PUNITIVE OR CONSEQUENTIAL DAMAGES ARISING OUT OF OR IN CONNECTION WITH 
* THE PRODUCTION OR USE OF SM DATA, HOWEVER CAUSED AND UNDER WHATEVER CAUSE OF ACTION OR THEORY 
* OF LIABILITY BROUGHT (INCLUDING, WITHOUT LIMITATION, UNDER ANY CONTRACT, NEGLIGENCE OR OTHER 
* TORT THEORY OF LIABILITY), EVEN IF DIODES HAS BEEN ADVISED OF THE POSSIBILITY OF SUCH DAMAGES, 
* AND DIODES' TOTAL LIABILITY (WHETHER IN CONTRACT, TORT OR OTHERWISE) WITH REGARD TO THE SM 
* DATA WILL NOT, IN THE AGGREGATE, EXCEED ANY SUMS PAID BY YOU TO DIODES FOR THE SM DATA.


*DIODES_INC_SPICE_MODEL_DA1201Y
*ORIGIN=DZSL_DPG_SU
*SIMULATOR=PSPICE
*DATE=06/07/2012
*VERSION=1



.MODEL DA1201Y PNP IS=1.6E-13 NF=1 BF=210 VAF=175 ISE=3E-14 IKF=4.2
+ NE=1.4 BR=12 VAR=5.15 ISC=1E-13 NC=1.08 IKR=0.7 RC=0.013 RB=0.2 RE=0.016
+ QUASIMOD=1 RCO=4 GAMMA=1.4E-8 CJC=42E-12 MJC=0.32 VJC=0.44 CJE=237E-12
+ MJE=0.44 VJE=0.85 TF=0.95E-9 TR=22E-8 TRC1=.005 TRB1=.005 TRE1=.005 XTB=1.4 
*


*DIODES_INC_SPICE_MODEL_DA1201Y
*ORIGIN=DZSL_DPG_SU
*SIMULATOR=PSPICE
*DATE=06/07/2012
*VERSION=1



.MODEL DA1201Y PNP IS=1.6E-13 NF=1 BF=210 VAF=175 ISE=3E-14 IKF=4.2
+ NE=1.4 BR=12 VAR=5.15 ISC=1E-13 NC=1.08 IKR=0.7 RC=0.013 RB=0.2 RE=0.016
+ QUASIMOD=1 RCO=4 GAMMA=1.4E-8 CJC=42E-12 MJC=0.32 VJC=0.44 CJE=237E-12
+ MJE=0.44 VJE=0.85 TF=0.95E-9 TR=22E-8 TRC1=.005 TRB1=.005 TRE1=.005 XTB=1.4 
*


*SRC=2DA1774R;DI_2DA1774R;BJTs PNP; Si;  50.0V  0.150A  250MHz   Diodes Inc. Bipolar Transistor
.MODEL DI_2DA1774R  PNP (IS=15.2f NF=1.00 BF=523 VAF=127
+ IKF=54.7m ISE=3.88p NE=2.00 BR=4.00 NR=1.00
+ VAR=24.0 IKR=0.135 RE=0.710 RB=2.84 RC=0.284
+ XTB=1.5 CJE=42.6p VJE=1.10 MJE=0.500 CJC=13.7p VJC=0.300
+ MJC=0.300 TF=453p TR=96.4n EG=1.12 )


*
*DIODES_INC_SPICE_MODEL
*ORIGIN=DZSL_DPG
*SIMULATOR=PSPICE
*DATE=08/01/2009
*VERSION=1
*
.MODEL 2DA1797 PNP IS=2.715E-13 BF=170 VAF=70 NF=1.004 IKF=2.75 ISE=1E-13
+ NE=1.535 BR=23 VAR=40 NR=1.005 IKR=.55 ISC=5.15E-14 NC=1.13 RB=.07
+ RE=.065 RC=.085 CJE=360E-12 TF=.94E-9 CJC=90E-12 TR=60E-9 VJC=.705
+ MJC=.46
*
*$


*
*DIODES_INC_SPICE_MODEL
*ORIGIN=DZSL_DPG
*SIMULATOR=PSPICE
*DATE=08/01/2009
*VERSION=1
*
.MODEL 2DA1797 PNP IS=2.715E-13 BF=170 VAF=70 NF=1.004 IKF=2.75 ISE=1E-13
+ NE=1.535 BR=23 VAR=40 NR=1.005 IKR=.55 ISC=5.15E-14 NC=1.13 RB=.07
+ RE=.065 RC=.085 CJE=360E-12 TF=.94E-9 CJC=90E-12 TR=60E-9 VJC=.705
+ MJC=.46
*
*$


*DIODES_INC_SPICE_MODEL_2DA1971
*ORIGIN=DZSL_DPG
*SIMULATOR=PSPICE
*DATE=09/10/2012
*VERSION=2


.MODEL 2DA1971 PNP  IS =1.305E-13 NF =1.0004 BF =150 VAF=350
+ISE=7.5E-13 NE =1.5 RCO=20 GAMMA=2.5E-8 QUASIMOD=1 NR =1
+ISC=2E-13 NC =1.8 VAR=30  BR =2.5 RB =.1 RE =.01 RC =.01
+CJC=58E-12 MJC=.56 VJC=.775 CJE=404E-12  TF =1E-9 TR =1200E-9
+XTB=1.7 


*                (c)  2012 Diodes Inc
*
*   The copyright in these models  and  the designs embodied belong
*   to Diodes Incorporated (" Zetex ").  They  are  supplied
*   free of charge by Zetex for the purpose of research and design
*   and may be used or copied intact  (including this notice)  for
*   that purpose only.  All other rights are reserved.  The models
*   are believed accurate but no condition  or warranty  as to their
*   merchantability or fitness for purpose is given and no liability
*   in respect of any use is accepted by Diodes Incorporated, its distributors
*   or agents.
*
*   Diodes Zetex Semiconductors Ltd, Zetex Technology Park, Chadderton,
*   Oldham, United Kingdom, OL9 9LL
*


*SRC=2DB1132R;DI_2DB1132R;BJTs PNP; Si;  32.0V  1.00A  200MHz    -
.MODEL DI_2DB1132R  NPN (IS=3.90f NF=1.00 BF=302 VAF=102
+ IKF=0.989 ISE=6.63f NE=2.00 BR=4.00 NR=1.00
+ VAR=20.0 IKR=1.50 RE=96.5m RB=0.386 RC=38.6m
+ XTB=1.5 CJE=127p VJE=1.10 MJE=0.500 CJC=32.4p VJC=0.300
+ MJC=0.300 TF=741p TR=123n EG=1.12 )


*DIODES_INC_SPICE_MODEL 2DB1182Q 
*SIMULATOR=SIMETRIX
*ORIGIN=DZSL_DPG_SU
*DATE=6Nov2012
*VERSION=1


.MODEL 2DB1182Q  PNP (IS=24E-14 NF=1.00 BF=200 ISE=10E-15 NE=1.28 VAF=127
+ IKF=3.34 BR=16.00 NR=1.00 ISC=30E-15 NC=1
+ VAR=20.0 IKR=5.25 RE=33.2m RB=0.133 RC=33.3m
+ XTB=1.5 CJE=411p VJE=.75 MJE=0.37 CJC=93.24p VJC=0.500
+ MJC=0.3300 TF=1.27n TR=230n EG=1.2 XTI=3)



*                (c)  2012 Diodes Inc
*
*   The copyright in these models  and  the designs embodied belong
*   to Diodes Incorporated (" Zetex ").  They  are  supplied
*   free of charge by Zetex for the purpose of research and design
*   and may be used or copied intact  (including this notice)  for
*   that purpose only.  All other rights are reserved.  The models
*   are believed accurate but no condition  or warranty  as to their
*   merchantability or fitness for purpose is given and no liability
*   in respect of any use is accepted by Diodes Incorporated, its distributors
*   or agents.
*
*   Diodes Zetex Semiconductors Ltd, Zetex Technology Park, Chadderton,
*   Oldham, United Kingdom, OL9 9LL
*


*DIODES_INC_SPICE_MODEL 2DB1184Q 
*SIMULATOR=SIMETRIX
*ORIGIN=DZSL_DPG_SU
*DATE=29Nov2012
*VERSION=1


.MODEL 2DB1184Q  PNP (IS=24E-14 NF=1.00 BF=200 ISE=10E-15 NE=1.28 VAF=127
+ IKF=3.34 BR=16.00 NR=1.00 ISC=30E-15 NC=1
+ VAR=20.0 IKR=5.25 RE=33.2m RB=0.133 RC=33.3m
+ XTB=1.5 CJE=411p VJE=.75 MJE=0.37 CJC=93.24p VJC=0.500
+ MJC=0.3300 TF=1.27n TR=230n EG=1.2 XTI=3)



*                (c)  2012 Diodes Inc
*
*   The copyright in these models  and  the designs embodied belong
*   to Diodes Incorporated (" Zetex ").  They  are  supplied
*   free of charge by Zetex for the purpose of research and design
*   and may be used or copied intact  (including this notice)  for
*   that purpose only.  All other rights are reserved.  The models
*   are believed accurate but no condition  or warranty  as to their
*   merchantability or fitness for purpose is given and no liability
*   in respect of any use is accepted by Diodes Incorporated, its distributors
*   or agents.
*
*   Diodes Zetex Semiconductors Ltd, Zetex Technology Park, Chadderton,
*   Oldham, United Kingdom, OL9 9LL
*


*
*DIODES_INC_SPICE_MODEL
*ORIGIN=DZSL_DPG_IM
*SIMULATOR=PSPICE
*DATE=17Jun2013
*VERSION=1
*

.MODEL 2DB1713 PNP IS=1.252E-12 NF=1.0119 BF=770 IKF=2.6 VAF=11
+ISE=1.3185E-13 NE=1.4832 NR=1.0047 BR=350 IKR=0.32 VAR=10.5
+ISC=5.2648E-14 NC=1.186 RB=0.053 RE=0.031 RC=0.044 CJC=137E-12
+MJC=0.34 VJC=0.275 CJE=280E-12 TF=0.75E-9 TR=2.3E-9


*                (c)  2013 Diodes Inc
*
*   The copyright in these models  and  the designs embodied belong
*   to Diodes Incorporated (" Zetex ").  They  are  supplied
*   free of charge by Zetex for the purpose of research and design
*   and may be used or copied intact  (including this notice)  for
*   that purpose only.  All other rights are reserved.  The models
*   are believed accurate but no condition  or warranty  as to their
*   merchantability or fitness for purpose is given and no liability
*   in respect of any use is accepted by Diodes Incorporated, its distributors
*   or agents.
*
*   Diodes Zetex Semiconductors Ltd, Zetex Technology Park, Chadderton,
*   Oldham, United Kingdom, OL9 9LL
*


*SRC=2DC2412R;DI_2DC2412R;BJTs NPN; Si;  50.0V  0.150A  200MHz   Diodes Inc. Bipolar Transistor
.MODEL DI_2DC2412R  NPN (IS=15.5f NF=1.00 BF=524 VAF=127
+ IKF=54.7m ISE=3.90p NE=2.00 BR=4.00 NR=1.00
+ VAR=28.0 IKR=0.135 RE=0.290 RB=1.16 RC=0.116
+ XTB=1.5 CJE=22.7p VJE=1.10 MJE=0.500 CJC=7.34p VJC=0.300
+ MJC=0.300 TF=698p TR=121n EG=1.12 )


*SRC=2DC4617QLP;DI_2DC4617QLP;BJTs NPN; Si;  50.0V  0.100A  200MHz    
.MODEL DI_2DC4617QLP  NPN (IS=1.21f NF=1.00 BF=202 VAF=127
+ IKF=98.0m ISE=5.55f NE=2.00 BR=4.00 NR=1.00
+ VAR=20.0 IKR=0.150 RE=0.575 RB=2.30 RC=0.230
+ XTB=1.5 CJE=15.6p VJE=1.10 MJE=0.500 CJC=6.12p VJC=0.300
+ MJC=0.300 TF=765p TR=126n EG=1.12 )


*SRC=2DC4617R;DI_2DC4617R;BJTs NPN; Si;  50.0V  0.150A  200MHz   Diodes Inc. Bipolar Transistor
.MODEL DI_2DC4617R  NPN (IS=15.5f NF=1.00 BF=524 VAF=127
+ IKF=54.7m ISE=3.90p NE=2.00 BR=4.00 NR=1.00
+ VAR=28.0 IKR=0.135 RE=0.290 RB=1.16 RC=0.116
+ XTB=1.5 CJE=22.7p VJE=1.10 MJE=0.500 CJC=7.34p VJC=0.300
+ MJC=0.300 TF=698p TR=121n EG=1.12 )


*
*DIODES_INC_SPICE_MODEL
*ORIGIN=DZSL_DPG
*SIMULATOR=PSPICE
*DATE=09/01/2009
*VERSION=1
*
.MODEL 2DC4672 NPN IS=2.218E-13 NF=.9956 BF=230 IKF=2 VAF=100 ISE=2.9E-14
+ NE=1.35 NR=.995 BR=56 IKR=1 VAR=30 ISC=2.971E-13 NC=1.321 RB=.04
+ RE=.075 RC=.069 CJC=51E-12 MJC=.42 VJC=.595 CJE=318E-12 TF=.77E-9
+ TR=27E-9
*
*$


*
*DIODES_INC_SPICE_MODEL 2DD1664R
*ORIGIN=DZSL_DPG_SU
*SIMULATOR=PSPICE
*DATE=14/07/2014
*VERSION=1


.MODEL DD1664R NPN IS=150E-15 NF=1 BF=224 
+ ISE=1E-15 NE=1.35 NR=1 BR=28 ISC=6E-14 IKF=5 NK=.52 VAF=30
+ NC=1.3 RB=0.5 RE=0.1 RC=0.134 QUASIMOD=1 RCO=1 GAMMA=50E-11 VO=10
+ CJC=36.5E-12 MJC=0.36 VJC=0.55 CJE=139.4E-12 MJE=0.36 VJE=0.7
+ TF=1.3E-9 TR=16E-6 TRC1=.004 TRB1=.004 TRE1=.004 XTB=1.2
*QUASIMOD=1 RCO=80 GAMMA=4E-7  IKR=0.7 VAR=64 
*$



*                (c)  2014 Diodes Inc
*
*   The copyright in these models  and  the designs embodied belong
*   to Diodes Incorporated (" Zetex ").  They  are  supplied
*   free of charge by Zetex for the purpose of research and design
*   and may be used or copied intact  (including this notice)  for
*   that purpose only.  All other rights are reserved.  The models
*   are believed accurate but no condition  or warranty  as to their
*   merchantability or fitness for purpose is given and no liability
*   in respect of any use is accepted by Diodes Incorporated, its distributors
*   or agents.
*
*   Diodes Zetex Semiconductors Ltd, Zetex Technology Park, Chadderton,
*   Oldham, United Kingdom, OL9 9LL
*


*SRC=2DD1766Q;DI_2DD1766Q;BJTs NPN; Si;  32.0V  2.00A  250MHz    -
.MODEL DI_2DD1766Q  NPN (IS=6.65f NF=1.00 BF=201 VAF=102
+ IKF=2.97 ISE=13.0f NE=2.00 BR=4.00 NR=1.00
+ VAR=20.0 IKR=4.50 RE=68.7m RB=0.275 RC=27.5m
+ XTB=1.5 CJE=218p VJE=1.10 MJE=0.500 CJC=41.4p VJC=0.300
+ MJC=0.300 TF=538p TR=101n EG=1.12 )


*
*DIODES_INC_SPICE_MODEL
*ORIGIN=DZSL_DPG
*SIMULATOR=PSPICE
*DATE=09/01/2009
*VERSION=1
*
.MODEL 2DD2652  NPN IS=2.66E-13 BF=550 IKF=2.25 VAF=34.6
+ ISE=5.7E-14 NE=1.425 BR=280 IKR=0.9 VAR=12.25 
+ ISC=2.76E-13 NC=1.46 RB=0.22 RE=0.055 RC=0.038 
+ CJC=34.2E-12 MJC=0.298 VJC=0.441 CJE=103.5E-12 
+ MJE=0.357 VJE=0.7042 TF=1.12E-9 TR=2.15E-9
*
*$


*
*DIODES_INC_SPICE_MODEL
*ORIGIN=DZSL_DPG
*SIMULATOR=PSPICE
*DATE=08/01/2009
*VERSION=1
*
.MODEL 2DD2656 NPN IS=2.61E-13 BF=550 IKF=0.99 VAF=84
+ ISE=7.17E-14 NE=1.4148 BR=110 IKR=0.63 VAR=51 ISC=2.25E-12 
+ NC=1.45 RB=0.093 RE=0.073 RC=0.083 CJC=18E-12 MJC=0.371 
+ VJC=0.435 CJE=97.7E-12 TF=0.78E-9 TR=9E-9
*
*$


*
*DIODES_INC_SPICE_MODEL
*ORIGIN=DZSL_DPG
*SIMULATOR=PSPICE
*DATE=09/01/2009
*VERSION=1
*
.MODEL 2DD2679 NPN IS=5.1E-13 BF=480 NF=1 VAF=99 IKF=3.3 ISE=1.2E-13
+ NE=1.49 BR=65 NR=1 VAR=24 IKR=1 ISC=1.1E-13 NC=1.31 RE=0.0115 RB=0.15 RC=0.012
+ CJE=192E-12 VJE=0.75 MJE=0.38 CJC=35E-12 VJC=0.47 MJC=0.34 TF=0.62E-9 TR=20E-9
+ RCO=1.9 GAMMA=1E-8 QUASIMOD=1 XTB=1.35 TRE1=0.005 TRB1=0.005 TRC1=0.005
*
*$


*SRC=BC807-16;DI_BC807-16;BJTs PNP; Si;  45.0V  0.500A  220MHz   Diodes
Inc. BJTs
.MODEL DI_BC807-16  PNP (IS=50.7f NF=1.00 BF=342 VAF=121
+ IKF=0.273 ISE=24.2p NE=2.00 BR=4.00 NR=1.00
+ VAR=20.0 IKR=0.675 RE=0.213 RB=0.852 RC=85.2m
+ XTB=1.5 CJE=107p VJE=1.10 MJE=0.500 CJC=34.7p VJC=0.300 MJC=0.300 
+ TF=631p TR=111n EG=1.12 )


*SRC=BC807-16W;DI_BC807-16W;BJTs PNP; Si;  45.0V  0.500A  163MHz   Diodes Inc. PNP BJT
.MODEL DI_BC807-16W  NPN (IS=49.9f NF=1.00 BF=342 VAF=121
+ IKF=0.182 ISE=19.6p NE=2.00 BR=4.00 NR=1.00
+ VAR=20.0 IKR=0.450 RE=0.663 RB=2.65 RC=0.265
+ XTB=1.5 CJE=107p VJE=1.10 MJE=0.500 CJC=34.7p VJC=0.300
+ MJC=0.300 TF=841p TR=112n EG=1.12


*SRC=BC807-25;DI_BC807-25;BJTs PNP; Si;  45.0V  0.500A  220MHz   Diodes
Inc. BJTs
.MODEL DI_BC807-25  PNP (IS=50.7f NF=1.00 BF=547 VAF=121
+ IKF=0.273 ISE=15.1p NE=2.00 BR=4.00 NR=1.00
+ VAR=20.0 IKR=0.675 RE=0.213 RB=0.852 RC=85.2m
+ XTB=1.5 CJE=107p VJE=1.10 MJE=0.500 CJC=34.7p VJC=0.300 MJC=0.300 
+ TF=631p TR=109n EG=1.12 )


*SRC=BC807-25W;DI_BC807-25W;BJTs PNP; Si;  45.0V  0.500A  163MHz   Diodes Inc. PNP BJT
.MODEL DI_BC807-25W  NPN (IS=49.9f NF=1.00 BF=547 VAF=121
+ IKF=0.182 ISE=12.3p NE=2.00 BR=4.00 NR=1.00
+ VAR=20.0 IKR=0.450 RE=0.663 RB=2.65 RC=0.265
+ XTB=1.5 CJE=107p VJE=1.10 MJE=0.500 CJC=34.7p VJC=0.300
+ MJC=0.300 TF=841p TR=110n EG=1.12 )


*SRC=BC807-40;DI_BC807-40;BJTs PNP; Si;  45.0V  0.500A  220MHz   Diodes
Inc. BJTs
.MODEL DI_BC807-40  PNP (IS=50.7f NF=1.00 BF=821 VAF=121
+ IKF=0.273 ISE=10.1p NE=2.00 BR=4.00 NR=1.00
+ VAR=20.0 IKR=0.675 RE=0.213 RB=0.852 RC=85.2m
+ XTB=1.5 CJE=107p VJE=1.10 MJE=0.500 CJC=34.7p VJC=0.300 MJC=0.300 
+ TF=631p TR=108n EG=1.12 )


*SRC=BC807-40;DI_BC807-40;BJTs PNP; Si;  45.0V  0.500A  220MHz   Diodes
Inc. BJTs
.MODEL DI_BC807-40  PNP (IS=50.7f NF=1.00 BF=821 VAF=121
+ IKF=0.273 ISE=10.1p NE=2.00 BR=4.00 NR=1.00
+ VAR=20.0 IKR=0.675 RE=0.213 RB=0.852 RC=85.2m
+ XTB=1.5 CJE=107p VJE=1.10 MJE=0.500 CJC=34.7p VJC=0.300 MJC=0.300 
+ TF=631p TR=108n EG=1.12 )


*SRC=BC807-40W;DI_BC807-40W;BJTs PNP; Si;  45.0V  0.500A  163MHz   Diodes Inc. PNP BJT
.MODEL DI_BC807-40W  NPN (IS=49.9f NF=1.00 BF=821 VAF=121
+ IKF=0.182 ISE=8.17p NE=2.00 BR=4.00 NR=1.00
+ VAR=20.0 IKR=0.450 RE=0.663 RB=2.65 RC=0.265
+ XTB=1.5 CJE=107p VJE=1.10 MJE=0.500 CJC=34.7p VJC=0.300
+ MJC=0.300 TF=841p TR=109n EG=1.12 )


*SRC=BC817-16;DI_BC817-16;BJTs NPN; Si;  45.0V  0.800A  220MHz   Diodes
Inc. BJTs
.MODEL DI_BC817-16  NPN (IS=4.04n NF=1.00 BF=342 VAF=121
+ IKF=0.273 ISE=6.86n NE=2.00 BR=4.00 NR=1.00
+ VAR=20.0 IKR=0.675 RE=0.227 RB=0.907 RC=90.7m
+ XTB=1.5 CJE=107p VJE=1.10 MJE=0.500 CJC=34.7p VJC=0.300 MJC=0.300 
+ TF=651p TR=111n EG=1.12 )


*SRC=BC817-16;DI_BC817-16;BJTs NPN; Si;  45.0V  0.800A  220MHz   Diodes
Inc. BJTs
.MODEL DI_BC817-16  NPN (IS=4.04n NF=1.00 BF=342 VAF=121
+ IKF=0.273 ISE=6.86n NE=2.00 BR=4.00 NR=1.00
+ VAR=20.0 IKR=0.675 RE=0.227 RB=0.907 RC=90.7m
+ XTB=1.5 CJE=107p VJE=1.10 MJE=0.500 CJC=34.7p VJC=0.300 MJC=0.300 
+ TF=651p TR=111n EG=1.12 )


*SRC=BC807-16W;DI_BC807-16W;BJTs PNP; Si;  45.0V  0.500A  163MHz   Diodes Inc. PNP BJT
.MODEL DI_BC807-16W  NPN (IS=49.9f NF=1.00 BF=342 VAF=121
+ IKF=0.182 ISE=19.6p NE=2.00 BR=4.00 NR=1.00
+ VAR=20.0 IKR=0.450 RE=0.663 RB=2.65 RC=0.265
+ XTB=1.5 CJE=107p VJE=1.10 MJE=0.500 CJC=34.7p VJC=0.300
+ MJC=0.300 TF=841p TR=112n EG=1.12


*SRC=BC817-25;DI_BC817-25;BJTs NPN; Si;  45.0V  0.800A  220MHz   Diodes
Inc. BJTs
.MODEL DI_BC817-25  NPN (IS=4.04n NF=1.00 BF=548 VAF=121
+ IKF=0.273 ISE=4.29n NE=2.00 BR=4.00 NR=1.00
+ VAR=20.0 IKR=0.675 RE=0.227 RB=0.907 RC=90.7m
+ XTB=1.5 CJE=107p VJE=1.10 MJE=0.500 CJC=34.7p VJC=0.300 MJC=0.300 
+ TF=651p TR=109n EG=1.12 )


*SRC=BC817-25;DI_BC817-25;BJTs NPN; Si;  45.0V  0.800A  220MHz   Diodes
Inc. BJTs
.MODEL DI_BC817-25  NPN (IS=4.04n NF=1.00 BF=548 VAF=121
+ IKF=0.273 ISE=4.29n NE=2.00 BR=4.00 NR=1.00
+ VAR=20.0 IKR=0.675 RE=0.227 RB=0.907 RC=90.7m
+ XTB=1.5 CJE=107p VJE=1.10 MJE=0.500 CJC=34.7p VJC=0.300 MJC=0.300 
+ TF=651p TR=109n EG=1.12 )


*SRC=BC807-25W;DI_BC807-25W;BJTs PNP; Si;  45.0V  0.500A  163MHz   Diodes Inc. PNP BJT
.MODEL DI_BC807-25W  NPN (IS=49.9f NF=1.00 BF=547 VAF=121
+ IKF=0.182 ISE=12.3p NE=2.00 BR=4.00 NR=1.00
+ VAR=20.0 IKR=0.450 RE=0.663 RB=2.65 RC=0.265
+ XTB=1.5 CJE=107p VJE=1.10 MJE=0.500 CJC=34.7p VJC=0.300
+ MJC=0.300 TF=841p TR=110n EG=1.12 )


*SRC=BC817-40;DI_BC817-40;BJTs NPN; Si;  45.0V  0.800A  220MHz   Diodes
Inc. BJTs
.MODEL DI_BC817-40  NPN (IS=4.04n NF=1.00 BF=822 VAF=121
+ IKF=0.273 ISE=2.86n NE=2.00 BR=4.00 NR=1.00
+ VAR=20.0 IKR=0.675 RE=0.227 RB=0.907 RC=90.7m
+ XTB=1.5 CJE=107p VJE=1.10 MJE=0.500 CJC=34.7p VJC=0.300 MJC=0.300 
+ TF=651p TR=108n EG=1.12 )


*SRC=BC817-40;DI_BC817-40;BJTs NPN; Si;  45.0V  0.800A  220MHz   Diodes
Inc. BJTs
.MODEL DI_BC817-40  NPN (IS=4.04n NF=1.00 BF=822 VAF=121
+ IKF=0.273 ISE=2.86n NE=2.00 BR=4.00 NR=1.00
+ VAR=20.0 IKR=0.675 RE=0.227 RB=0.907 RC=90.7m
+ XTB=1.5 CJE=107p VJE=1.10 MJE=0.500 CJC=34.7p VJC=0.300 MJC=0.300 
+ TF=651p TR=108n EG=1.12 )


*SRC=BC807-40W;DI_BC807-40W;BJTs PNP; Si;  45.0V  0.500A  163MHz   Diodes Inc. PNP BJT
.MODEL DI_BC807-40W  NPN (IS=49.9f NF=1.00 BF=821 VAF=121
+ IKF=0.182 ISE=8.17p NE=2.00 BR=4.00 NR=1.00
+ VAR=20.0 IKR=0.450 RE=0.663 RB=2.65 RC=0.265
+ XTB=1.5 CJE=107p VJE=1.10 MJE=0.500 CJC=34.7p VJC=0.300
+ MJC=0.300 TF=841p TR=109n EG=1.12 )


*SRC=BC846A;DI_BC846A;BJTs NPN; Si;  65.0V  0.100A  300MHz   Diodes Inc
BJTs
.MODEL DI_BC846A  NPN (IS=10.2f NF=1.00 BF=305 VAF=145
+ IKF=53.6m ISE=5.86p NE=2.00 BR=4.00 NR=1.00
+ VAR=24.0 IKR=0.135 RE=0.915 RB=3.66 RC=0.366
+ XTB=1.5 CJE=26.8p VJE=1.10 MJE=0.500 CJC=8.67p VJC=0.300 MJC=0.300 
+ TF=416p TR=50.3n EG=1.12 )


*SRC=BC846A;DI_BC846A;BJTs NPN; Si;  65.0V  0.100A  300MHz   Diodes Inc
BJTs
.MODEL DI_BC846A  NPN (IS=10.2f NF=1.00 BF=305 VAF=145
+ IKF=53.6m ISE=5.86p NE=2.00 BR=4.00 NR=1.00
+ VAR=24.0 IKR=0.135 RE=0.915 RB=3.66 RC=0.366
+ XTB=1.5 CJE=26.8p VJE=1.10 MJE=0.500 CJC=8.67p VJC=0.300 MJC=0.300 
+ TF=416p TR=50.3n EG=1.12 )


*SRC=BC846AS;DI_BC846AS;BJTs NPN; Si;  65.0V  0.100A  250MHz    Diodes Inc
.MODEL DI_BC846AS  PNP (IS=10.1f NF=1.00 BF=301 VAF=145
+ IKF=54.7m ISE=5.50p NE=2.00 BR=4.00 NR=1.00
+ VAR=24.0 IKR=0.135 RE=0.705 RB=2.82 RC=0.282
+ XTB=1.5 CJE=19.1p VJE=1.10 MJE=0.500 CJC=5.37p VJC=0.300
+ MJC=0.300 TF=564p TR=98.4n EG=1.12


*SRC=BC846AS;DI_BC846AS;BJTs NPN; Si;  65.0V  0.100A  250MHz    Diodes Inc
.MODEL DI_BC846AS  PNP (IS=10.1f NF=1.00 BF=301 VAF=145
+ IKF=54.7m ISE=5.50p NE=2.00 BR=4.00 NR=1.00
+ VAR=24.0 IKR=0.135 RE=0.705 RB=2.82 RC=0.282
+ XTB=1.5 CJE=19.1p VJE=1.10 MJE=0.500 CJC=5.37p VJC=0.300
+ MJC=0.300 TF=564p TR=98.4n EG=1.12


*SRC=BC846AW;DI_BC846AW;BJTs NPN; Si;  65.0V  0.100A  300MHz   Diodes Inc
BJTs
.MODEL DI_BC846AW  NPN (IS=10.2f NF=1.00 BF=305 VAF=145
+ IKF=53.6m ISE=5.86p NE=2.00 BR=4.00 NR=1.00
+ VAR=24.0 IKR=0.135 RE=0.915 RB=3.66 RC=0.366
+ XTB=1.5 CJE=26.8p VJE=1.10 MJE=0.500 CJC=8.67p VJC=0.300 MJC=0.300 
+ TF=416p TR=50.3n EG=1.12 )


*SRC=BC846B;DI_BC846B;BJTs NPN; Si;  65.0V  0.100A  300MHz   Diodes Inc
BJTs
.MODEL DI_BC846B  NPN (IS=10.2f NF=1.00 BF=650 VAF=145
+ IKF=39.5m ISE=2.93p NE=2.00 BR=4.00 NR=1.00
+ VAR=24.0 IKR=0.105 RE=0.915 RB=3.66 RC=0.366
+ XTB=1.5 CJE=26.8p VJE=1.10 MJE=0.500 CJC=8.67p VJC=0.300 MJC=0.300 
+ TF=385p TR=49.0n EG=1.12 )


*DIODES_INC_SPICE_MODEL BC846BLP4
*SIMULATOR=SIMETRIX
*ORIGIN=DZSL_DPG_IM
*DATE=27Mar2013
*VERSION=1

.MODEL BC846BLP4  NPN (IS=6E-15 NF=.99 BF=350 ISE=400E-18 NE=1.15 BR=1.8 NR=.97 NC=1.1 ISC=10E-15
+ RE=0.15 RB=4 RC=0.2 CJE=9p VJE=.7 MJE=0.3 CJC=3.146p VJC=0.500 MJC=0.2200 VAF=40 IKF=48m VAR=24.0 IKR=90.0m)



*                (c)  2013 Diodes Inc
*
*   The copyright in these models  and  the designs embodied belong
*   to Diodes Incorporated (" Zetex ").  They  are  supplied
*   free of charge by Zetex for the purpose of research and design
*   and may be used or copied intact  (including this notice)  for
*   that purpose only.  All other rights are reserved.  The models
*   are believed accurate but no condition  or warranty  as to their
*   merchantability or fitness for purpose is given and no liability
*   in respect of any use is accepted by Diodes Incorporated, its distributors
*   or agents.
*
*   Diodes Zetex Semiconductors Ltd, Zetex Technology Park, Chadderton,
*   Oldham, United Kingdom, OL9 9LL
*


*SRC=BC846B;DI_BC846B;BJTs NPN; Si;  65.0V  0.100A  300MHz   Diodes Inc
BJTs
.MODEL DI_BC846B  NPN (IS=10.2f NF=1.00 BF=650 VAF=145
+ IKF=39.5m ISE=2.93p NE=2.00 BR=4.00 NR=1.00
+ VAR=24.0 IKR=0.105 RE=0.915 RB=3.66 RC=0.366
+ XTB=1.5 CJE=26.8p VJE=1.10 MJE=0.500 CJC=8.67p VJC=0.300 MJC=0.300 
+ TF=385p TR=49.0n EG=1.12 )


*SRC=BC846BW;DI_BC846BW;BJTs NPN; Si;  65.0V  0.100A  300MHz   Diodes Inc
BJTs
.MODEL DI_BC846BW  NPN (IS=10.2f NF=1.00 BF=650 VAF=145
+ IKF=39.5m ISE=2.93p NE=2.00 BR=4.00 NR=1.00
+ VAR=24.0 IKR=0.105 RE=0.915 RB=3.66 RC=0.366
+ XTB=1.5 CJE=26.8p VJE=1.10 MJE=0.500 CJC=8.67p VJC=0.300 MJC=0.300 
+ TF=385p TR=49.0n EG=1.12 )


*SRC=BC846BW;DI_BC846BW;BJTs NPN; Si;  65.0V  0.100A  300MHz   Diodes Inc
BJTs
.MODEL DI_BC846BW  NPN (IS=10.2f NF=1.00 BF=650 VAF=145
+ IKF=39.5m ISE=2.93p NE=2.00 BR=4.00 NR=1.00
+ VAR=24.0 IKR=0.105 RE=0.915 RB=3.66 RC=0.366
+ XTB=1.5 CJE=26.8p VJE=1.10 MJE=0.500 CJC=8.67p VJC=0.300 MJC=0.300 
+ TF=385p TR=49.0n EG=1.12 )


*SRC=BC847A;DI_BC847A;BJTs NPN; Si;  45.0V  0.100A  300MHz   Diodes Inc
BJTs
.MODEL DI_BC847A  NPN (IS=10.2f NF=1.00 BF=301 VAF=121
+ IKF=60.7m ISE=5.82p NE=2.00 BR=4.00 NR=1.00
+ VAR=24.0 IKR=0.150 RE=0.915 RB=3.66 RC=0.366
+ XTB=1.5 CJE=26.8p VJE=1.10 MJE=0.500 CJC=8.67p VJC=0.300 MJC=0.300 
+ TF=427p TR=50.3n EG=1.12 )


*SRC=BC847A;DI_BC847A;BJTs NPN; Si;  45.0V  0.100A  300MHz   Diodes Inc
BJTs
.MODEL DI_BC847A  NPN (IS=10.2f NF=1.00 BF=301 VAF=121
+ IKF=60.7m ISE=5.82p NE=2.00 BR=4.00 NR=1.00
+ VAR=24.0 IKR=0.150 RE=0.915 RB=3.66 RC=0.366
+ XTB=1.5 CJE=26.8p VJE=1.10 MJE=0.500 CJC=8.67p VJC=0.300 MJC=0.300 
+ TF=427p TR=50.3n EG=1.12 )


*SRC=BC847AT;DI_BC847AT;BJTs NPN; Si;  45.0V  0.100A  300MHz   Diodes Inc
BJTs
.MODEL DI_BC847AT  NPN (IS=9.98f NF=1.00 BF=301 VAF=121
+ IKF=60.7m ISE=5.75p NE=2.00 BR=4.00 NR=1.00
+ VAR=24.0 IKR=0.150 RE=0.815 RB=3.26 RC=0.326
+ XTB=1.5 CJE=26.8p VJE=1.10 MJE=0.500 CJC=13.0p VJC=0.300 MJC=0.300 
+ TF=423p TR=50.3n EG=1.12 )


*SRC=BC847AW;DI_BC847AW;BJTs NPN; Si;  45.0V  0.100A  300MHz   Diodes Inc
BJTs
.MODEL DI_BC847AW  NPN (IS=10.2f NF=1.00 BF=301 VAF=121
+ IKF=60.7m ISE=5.82p NE=2.00 BR=4.00 NR=1.00
+ VAR=24.0 IKR=0.150 RE=0.915 RB=3.66 RC=0.366
+ XTB=1.5 CJE=26.8p VJE=1.10 MJE=0.500 CJC=8.67p VJC=0.300 MJC=0.300 
+ TF=427p TR=50.3n EG=1.12 )


*SRC=BC847B;DI_BC847B;BJTs NPN; Si;  45.0V  0.100A  300MHz   Diodes, Inc. transistor
.MODEL DI_BC847B  NPN (IS=3.75f NF=1.00 BF=1.61k VAF=121
+ IKF=8.79m ISE=8.38p NE=2.00 BR=4.00 NR=1.00
+ VAR=24.0 IKR=90.0m RE=0.765 RB=3.06 RC=0.306
+ XTB=1.5 CJE=13.3p VJE=1.10 MJE=0.500 CJC=8.67p VJC=0.300
+ MJC=0.300 TF=520p TR=78.9n EG=1.12 )


*DIODES_INC_SPICE_MODEL BC847BFA
*SIMULATOR=SIMETRIX
*ORIGIN=DZSL_DPG_IM
*DATE=10Jul2013
*VERSION=1.0

.MODEL BC847BFA  NPN (IS=6E-15 NF=.99 BF=350 ISE=400E-18 NE=1.15 BR=1.8 NR=.97 NC=1.1 ISC=10E-15 RE=0.15 RB=4 RC=0.2 CJE=9p VJE=.7 MJE=0.3 CJC=3.146p VJC=0.500 MJC=0.2200 VAF=40 IKF=48m VAR=24.0 IKR=90.0m)



*                (c)  2013 Diodes Inc
*
*   The copyright in these models  and  the designs embodied belong
*   to Diodes Incorporated (" Zetex ").  They  are  supplied
*   free of charge by Zetex for the purpose of research and design
*   and may be used or copied intact  (including this notice)  for
*   that purpose only.  All other rights are reserved.  The models
*   are believed accurate but no condition  or warranty  as to their
*   merchantability or fitness for purpose is given and no liability
*   in respect of any use is accepted by Diodes Incorporated, its distributors
*   or agents.
*
*   Diodes Zetex Semiconductors Ltd, Zetex Technology Park, Chadderton,
*   Oldham, United Kingdom, OL9 9LL
*


*DIODES_INC_SPICE_MODEL BC847BFA
*SIMULATOR=SIMETRIX
*ORIGIN=DZSL_DPG_IM
*DATE=10Jul2013
*VERSION=1.0

.MODEL BC847BFA  NPN (IS=6E-15 NF=.99 BF=350 ISE=400E-18 NE=1.15 BR=1.8 NR=.97 NC=1.1 ISC=10E-15 RE=0.15 RB=4 RC=0.2 CJE=9p VJE=.7 MJE=0.3 CJC=3.146p VJC=0.500 MJC=0.2200 VAF=40 IKF=48m VAR=24.0 IKR=90.0m)



*                (c)  2013 Diodes Inc
*
*   The copyright in these models  and  the designs embodied belong
*   to Diodes Incorporated (" Zetex ").  They  are  supplied
*   free of charge by Zetex for the purpose of research and design
*   and may be used or copied intact  (including this notice)  for
*   that purpose only.  All other rights are reserved.  The models
*   are believed accurate but no condition  or warranty  as to their
*   merchantability or fitness for purpose is given and no liability
*   in respect of any use is accepted by Diodes Incorporated, its distributors
*   or agents.
*
*   Diodes Zetex Semiconductors Ltd, Zetex Technology Park, Chadderton,
*   Oldham, United Kingdom, OL9 9LL
*


*DIODES_INC_SPICE_MODEL BC847BFAQ
*SIMULATOR=SIMETRIX
*ORIGIN=DZSL_DPG_IM
*DATE=10Jul2013_package updated Jan2019
*VERSION=1.0

.MODEL BC847BFAQ  NPN (IS=6E-15 NF=.99 BF=350 ISE=400E-18 NE=1.15 BR=1.8 NR=.97 NC=1.1 ISC=10E-15 RE=0.15 RB=4 RC=0.2 CJE=9p VJE=.7 MJE=0.3 CJC=3.146p VJC=0.500 MJC=0.2200 VAF=40 IKF=48m VAR=24.0 IKR=90.0m)



*                (c)  2013 Diodes Inc
*
*   The copyright in these models  and  the designs embodied belong
*   to Diodes Incorporated (" Zetex ").  They  are  supplied
*   free of charge by Zetex for the purpose of research and design
*   and may be used or copied intact  (including this notice)  for
*   that purpose only.  All other rights are reserved.  The models
*   are believed accurate but no condition  or warranty  as to their
*   merchantability or fitness for purpose is given and no liability
*   in respect of any use is accepted by Diodes Incorporated, its distributors
*   or agents.
*
*   Diodes Zetex Semiconductors Ltd, Zetex Technology Park, Chadderton,
*   Oldham, United Kingdom, OL9 9LL
*


*DIODES_INC_SPICE_MODEL BC847BFZ
*SIMULATOR=SIMETRIX
*ORIGIN=DZSL_DPG_IM
*DATE=10Jul2013_package updated Jan2019
*VERSION=1.0

.MODEL BC847BFZ  NPN (IS=6E-15 NF=.99 BF=350 ISE=400E-18 NE=1.15 BR=1.8 NR=.97 NC=1.1 ISC=10E-15 RE=0.15 RB=4 RC=0.2 CJE=9p VJE=.7 MJE=0.3 CJC=3.146p VJC=0.500 MJC=0.2200 VAF=40 IKF=48m VAR=24.0 IKR=90.0m)



*                (c)  2013 Diodes Inc
*
*   The copyright in these models  and  the designs embodied belong
*   to Diodes Incorporated (" Zetex ").  They  are  supplied
*   free of charge by Zetex for the purpose of research and design
*   and may be used or copied intact  (including this notice)  for
*   that purpose only.  All other rights are reserved.  The models
*   are believed accurate but no condition  or warranty  as to their
*   merchantability or fitness for purpose is given and no liability
*   in respect of any use is accepted by Diodes Incorporated, its distributors
*   or agents.
*
*   Diodes Zetex Semiconductors Ltd, Zetex Technology Park, Chadderton,
*   Oldham, United Kingdom, OL9 9LL
*


*SRC=BC847BLP;DI_BC847BLP;BJTs NPN; Si;  45.0V  0.100A  280MHz    -
.MODEL DI_BC847BLP  NPN (IS=5.62f NF=1.00 BF=450 VAF=121
+ IKF=70.3m ISE=191f NE=2.00 BR=4.00 NR=1.00
+ VAR=24.0 IKR=0.120 RE=0.700 RB=2.80 RC=0.280
+ XTB=1.5 CJE=14.6p VJE=1.10 MJE=0.500 CJC=6.93p VJC=0.300
+ MJC=0.300 TF=541p TR=86.5n EG=1.12 )


*SRC=BC847BLP4;DI_BC847BLP4;BJTs NPN; Si;  45.0V  0.100A  450MHz    
.MODEL DI_BC847BLP4  NPN (IS=2.31f NF=1.00 BF=425 VAF=121
+ IKF=58.6m ISE=3.67f NE=2.00 BR=4.00 NR=1.00
+ VAR=24.0 IKR=90.0m RE=0.700 RB=2.80 RC=0.280
+ XTB=1.5 CJE=14.9p VJE=1.10 MJE=0.500 CJC=6.07p VJC=0.300
+ MJC=0.300 TF=294p TR=53.9n EG=1.12 )


*SRC=BC847B;DI_BC847B;BJTs NPN; Si;  45.0V  0.100A  300MHz   Diodes, Inc. transistor
.MODEL DI_BC847B  NPN (IS=3.75f NF=1.00 BF=1.61k VAF=121
+ IKF=8.79m ISE=8.38p NE=2.00 BR=4.00 NR=1.00
+ VAR=24.0 IKR=90.0m RE=0.765 RB=3.06 RC=0.306
+ XTB=1.5 CJE=13.3p VJE=1.10 MJE=0.500 CJC=8.67p VJC=0.300
+ MJC=0.300 TF=520p TR=78.9n EG=1.12 )


*SRC=BC847BS;DI_BC847BS;BJTs NPN; Si;  45.0V  0.100A  250MHz   Diodes Inc.
BJTs
.MODEL DI_BC847BS  NPN (IS=9.98f NF=1.00 BF=616 VAF=121
+ IKF=60.7m ISE=2.81p NE=2.00 BR=4.00 NR=1.00
+ VAR=20.0 IKR=0.150 RE=0.815 RB=3.26 RC=0.326
+ XTB=1.5 CJE=13.3p VJE=1.10 MJE=0.500 CJC=4.33p VJC=0.300 MJC=0.300 
+ TF=585p TR=49.1n EG=1.12 )


*SRC=BC847BS;DI_BC847BS;BJTs NPN; Si;  45.0V  0.100A  250MHz   Diodes Inc.
BJTs
.MODEL DI_BC847BS  NPN (IS=9.98f NF=1.00 BF=616 VAF=121
+ IKF=60.7m ISE=2.81p NE=2.00 BR=4.00 NR=1.00
+ VAR=20.0 IKR=0.150 RE=0.815 RB=3.26 RC=0.326
+ XTB=1.5 CJE=13.3p VJE=1.10 MJE=0.500 CJC=4.33p VJC=0.300 MJC=0.300 
+ TF=585p TR=49.1n EG=1.12 )


*SRC=BC847BT;DI_BC847BT;BJTs NPN; Si;  45.0V  0.100A  300MHz   Diodes Inc
BJTs
.MODEL DI_BC847BT  NPN (IS=9.98f NF=1.00 BF=616 VAF=121
+ IKF=60.7m ISE=2.81p NE=2.00 BR=4.00 NR=1.00
+ VAR=24.0 IKR=0.150 RE=0.815 RB=3.26 RC=0.326
+ XTB=1.5 CJE=26.8p VJE=1.10 MJE=0.500 CJC=13.0p VJC=0.300 MJC=0.300 
+ TF=423p TR=49.1n EG=1.12 )


*DIODES_INC_SPICE_MODEL
*ORIGIN=DZSL_DPG_PH
*SIMULATOR=SIMETRIX
*DATE=13OCT2019
*VERSION=1
*
.MODEL BC847BTQ  NPN 
+ IS=9.98f
+ NF=1.00
+ BF=616
+ VAF=121
+ IKF=60.7m
+ ISE=2.81p
+ NE=2.00
+ BR=4.00
+ NR=1.00
+ VAR=24.0
+ IKR=0.150
+ RE=0.815
+ RB=3.26
+ RC=0.326
+ XTB=1.5
+ CJE=26.8p
+ VJE=1.10
+ MJE=0.500
+ CJC=13.0p
+ VJC=0.300
+ MJC=0.300 
+ TF=423p
+ TR=49.1n
+ EG=1.12

*                (c)  2019 Diodes Inc					
*					
*   The copyright in these models  and  the designs embodied belong					
*   to Diodes Incorporated (" Zetex ").  They  are  supplied					