*SRC=DNBT8105;DI_DNBT8105;BJTs NPN; Si;  60.0V  1.00A  150MHz   Diodes Inc. Single NPN BJT
.MODEL DI_DNBT8105  NPN (IS=167f NF=1.00 BF=264 VAF=139
+ IKF=0.364 ISE=65.8p NE=2.00 BR=4.00 NR=1.00
+ VAR=20.0 IKR=0.900 RE=0.231 RB=0.926 RC=92.6m
+ XTB=1.5 CJE=117p VJE=1.10 MJE=0.500 CJC=16.6p VJC=0.300
+ MJC=0.300 TF=973p TR=165n EG=1.12 )
